
  OWA STORM WATER MANAGEMENT MODEL - VERSION v5.1.14 (OWA 2022-07-31)
  --------------------------------------------------------------

  WARNING 04: minimum elevation drop used for Conduit WS02004404WS02004405
  WARNING 03: negative offset ignored for Link YS02001904YS02001907
  
  *********************************************************
  NOTE: The summary statistics displayed in this report are
  based on results found at every computational time step,  
  not just on results from each reporting time step.
  *********************************************************
  
  ****************
  Analysis Options
  ****************
  Flow Units ............... LPS
  Process Models:
    Rainfall/Runoff ........ YES
    RDII ................... NO
    Snowmelt ............... NO
    Groundwater ............ NO
    Flow Routing ........... YES
    Ponding Allowed ........ NO
    Water Quality .......... NO
  Infiltration Method ...... HORTON
  Flow Routing Method ...... DYNWAVE
  Surcharge Method ......... EXTRAN
  Starting Date ............ 08/28/2015 08:00:00
  Ending Date .............. 08/28/2015 16:00:00
  Antecedent Dry Days ...... 8.0
  Report Time Step ......... 00:01:00
  Wet Time Step ............ 00:01:00
  Dry Time Step ............ 00:01:00
  Routing Time Step ........ 30.00 sec
  Variable Time Step ....... YES
  Maximum Trials ........... 8
  Number of Threads ........ 4
  Head Tolerance ........... 0.001500 m
  
  
  **************************        Volume         Depth
  Runoff Quantity Continuity     hectare-m            mm
  **************************     ---------       -------
  Total Precipitation ......         3.847        63.505
  Evaporation Loss .........         0.000         0.000
  Infiltration Loss ........         0.242         4.001
  Surface Runoff ...........         3.544        58.509
  Final Storage ............         0.061         1.007
  Continuity Error (%) .....        -0.018
  
  
  **************************        Volume        Volume
  Flow Routing Continuity        hectare-m      10^6 ltr
  **************************     ---------     ---------
  Dry Weather Inflow .......         0.630         6.296
  Wet Weather Inflow .......         3.544        35.444
  Groundwater Inflow .......         0.000         0.000
  RDII Inflow ..............         0.000         0.000
  External Inflow ..........         0.105         1.045
  External Outflow .........         2.458        24.578
  Flooding Loss ............         1.765        17.650
  Evaporation Loss .........         0.000         0.000
  Exfiltration Loss ........         0.000         0.000
  Initial Stored Volume ....         0.303         3.031
  Final Stored Volume ......         0.365         3.652
  Continuity Error (%) .....        -0.140
  
  
  *************************
  Highest Continuity Errors
  *************************
  Node YS02001583 (-6.30%)
  Node YS02001884 (5.21%)
  Node HS02004842 (1.77%)
  
  
  ***************************
  Time-Step Critical Elements
  ***************************
  Link WS02006280WS02006229 (51.91%)
  Link WS02006238WS02006235 (9.74%)
  Link YS02001791YS02001793 (9.33%)
  Link WS02004404WS02004405 (8.56%)
  Link WS02006252WS02006251 (6.22%)
  
  
  ********************************
  Highest Flow Instability Indexes
  ********************************
  Link WS02006113WS02006111 (24)
  Link WS02006238WS02006235 (24)
  Link WS02004404WS02004405 (21)
  Link WS02006256WS02006235 (21)
  Link WS02006252WS02006251 (20)
  
  
  *************************
  Routing Time Step Summary
  *************************
  Minimum Time Step           :     0.00 sec
  Average Time Step           :     2.68 sec
  Maximum Time Step           :     6.46 sec
  Percent in Steady State     :    -0.00
  Average Iterations per Step :     3.39
  Percent Not Converging      :    14.23
  
  
  ***************************
  Subcatchment Runoff Summary
  ***************************
  
  ------------------------------------------------------------------------------------------------------------------------------
                            Total      Total      Total      Total     Imperv       Perv      Total       Total     Peak  Runoff
                           Precip      Runon       Evap      Infil     Runoff     Runoff     Runoff      Runoff   Runoff   Coeff
  Subcatchment                 mm         mm         mm         mm         mm         mm         mm    10^6 ltr      LPS
  ------------------------------------------------------------------------------------------------------------------------------
  sub0                      63.51       0.00       0.00       1.00      57.81       3.45      61.26        0.05    34.78   0.965
  sub1                      63.51       0.00       0.00       1.71      55.27       5.28      60.55        0.40   240.95   0.953
  sub10                     63.51       0.00       0.00       1.20      57.14       3.88      61.02        0.67   408.25   0.961
  sub11                     63.51       0.00       0.00       1.18      57.16       3.90      61.06        0.71   450.25   0.961
  sub12                     63.51       0.00       0.00       1.93      54.07       6.33      60.40        0.53   360.26   0.951
  sub14                     63.51       0.00       0.00       1.35      56.53       4.36      60.90        0.58   359.43   0.959
  sub15                     63.51       0.00       0.00       5.33      43.48      13.73      57.21        0.98   569.52   0.901
  sub16                     63.51       0.00       0.00       5.50      41.64      15.46      57.10        0.60   377.91   0.899
  sub17                     63.51       0.00       0.00       5.36      42.26      14.97      57.22        0.49   306.86   0.901
  sub2                      63.51       0.00       0.00       7.61      39.10      15.88      54.99        0.51   253.78   0.866
  sub22                     63.51       0.00       0.00       8.08      35.42      19.23      54.65        3.45  1912.57   0.861
  sub23                     63.51       0.00       0.00       6.58      39.15      16.92      56.07        2.67  1569.44   0.883
  sub3                      63.51       0.00       0.00       8.27      39.06      15.23      54.29        1.22   552.07   0.855
  sub4                      63.51       0.00       0.00       1.91      55.10       5.07      60.18        1.26   606.27   0.948
  sub5                      63.51       0.00       0.00       1.05      57.76       3.40      61.15        0.69   414.18   0.963
  sub60                     63.51       0.00       0.00       1.82      54.68       5.81      60.49        0.79   510.85   0.952
  sub61                     63.51       0.00       0.00       2.63      51.58       8.16      59.74        1.10   710.19   0.941
  sub62                     63.51       0.00       0.00       1.21      57.14       3.87      61.01        1.67  1003.62   0.961
  sub63                     63.51       0.00       0.00       4.88      44.12      13.54      57.66        1.31   804.09   0.908
  sub64                     63.51       0.00       0.00       2.46      52.77       7.06      59.84        1.44   828.04   0.942
  sub65                     63.51       0.00       0.00       2.13      53.99       6.13      60.12        1.66   927.49   0.947
  sub66                     63.51       0.00       0.00       6.06      44.01      12.36      56.37        2.63  1238.22   0.888
  sub67                     63.51       0.00       0.00       1.16      57.18       3.92      61.10        1.14   765.51   0.962
  sub68                     63.51       0.00       0.00       2.18      53.43       6.71      60.14        1.65  1024.82   0.947
  sub69                     63.51       0.00       0.00       1.96      53.87       7.57      61.44        2.27  1233.28   0.967
  sub7                      63.51       0.00       0.00       1.33      56.55       4.39      60.93        0.21   133.20   0.959
  sub70                     63.51       0.00       0.00       6.54      41.75      15.05      56.80        1.64   697.01   0.894
  sub71                     63.51       0.00       0.00       1.24      57.10       3.84      60.93        1.59   895.46   0.960
  sub72                     63.51       0.00       0.00       1.11      57.65       3.34      60.99        0.84   435.69   0.960
  sub8                      63.51       0.00       0.00       1.35      56.54       4.37      60.91        0.39   244.47   0.959
  sub9                      63.51       0.00       0.00       1.35      56.53       4.37      60.90        0.29   182.70   0.959
  
  
  ******************
  Node Depth Summary
  ******************
  
  ---------------------------------------------------------------------------------
                                 Average  Maximum  Maximum  Time of Max    Reported
                                   Depth    Depth      HGL   Occurrence   Max Depth
  Node                 Type       Meters   Meters   Meters  days hr:min      Meters
  ---------------------------------------------------------------------------------
  HS02004478           JUNCTION     0.26     1.59    10.82     0  02:12        1.59
  HS02004479           JUNCTION     0.34     1.85    11.05     0  02:04        1.85
  HS02004480           JUNCTION     0.31     1.81    11.05     0  02:04        1.81
  HS02004770           JUNCTION     0.31     1.42    11.25     0  02:03        1.42
  HS02004777           JUNCTION     0.33     1.48    11.28     0  02:03        1.48
  HS02004785           JUNCTION     0.22     1.49    11.39     0  02:03        1.49
  HS02004788           JUNCTION     0.19     1.42    11.32     0  02:03        1.38
  HS02004792           JUNCTION     0.25     1.60    11.12     0  02:03        1.60
  HS02004799           JUNCTION     0.37     1.76    10.97     0  02:06        1.76
  HS02004802           JUNCTION     0.37     1.92    11.05     0  02:04        1.92
  HS02004807           JUNCTION     0.34     1.92    11.09     0  02:04        1.92
  HS02004817           JUNCTION     0.65     2.44    11.29     0  02:04        2.44
  HS02004824           JUNCTION     0.21     2.01    11.41     0  02:06        1.98
  HS02004830           JUNCTION     0.20     2.03    11.50     0  02:06        1.91
  HS02004837           JUNCTION     0.17     2.04    11.62     0  02:06        1.81
  HS02004842           JUNCTION     0.47     2.22    11.49     0  02:06        2.12
  HS02004848           JUNCTION     0.15     2.07    11.67     0  02:06        1.79
  HS02004852           JUNCTION     0.16     2.12    11.63     0  02:06        1.84
  HS02004856           JUNCTION     0.22     2.07    11.50     0  02:06        1.90
  HS02004862           JUNCTION     0.17     1.95    11.34     0  02:06        1.89
  HS02004870           JUNCTION     0.17     2.10    11.39     0  02:06        1.88
  HS02004876           JUNCTION     0.22     2.26    11.29     0  02:06        1.97
  HS02004881           JUNCTION     0.15     1.93    10.96     0  02:06        1.73
  HS02004901           JUNCTION     0.31     1.42    11.24     0  02:03        1.42
  WS02001211           JUNCTION     0.64     0.81     5.65     0  02:16        0.81
  WS02001212           JUNCTION     0.39     0.57     5.64     0  02:17        0.57
  WS02001213           JUNCTION     0.60     0.87     5.63     0  02:17        0.87
  WS02003059           JUNCTION     0.67     0.94     5.63     0  02:16        0.94
  WS02003060           JUNCTION     0.39     0.69     5.62     0  02:15        0.69
  WS02003066           JUNCTION     0.23     0.46     6.01     0  02:13        0.46
  WS02003067           JUNCTION     0.55     0.89     6.21     0  02:13        0.89
  WS02003069           JUNCTION     0.44     0.78     5.36     0  02:16        0.78
  WS02003072           JUNCTION     0.50     0.81     5.18     0  02:15        0.81
  WS02003073           JUNCTION     0.30     0.52     4.58     0  02:16        0.52
  WS02004138           JUNCTION     0.13     0.14     7.39     0  00:29        0.14
  WS02004139           JUNCTION     0.58     0.75     5.66     0  02:17        0.75
  WS02004401           JUNCTION     0.80     2.26     8.26     0  02:04        1.87
  WS02004402           JUNCTION     0.81     2.24     8.20     0  02:04        2.03
  WS02004403           JUNCTION     0.81     2.30     8.23     0  02:04        1.73
  WS02004404           JUNCTION     0.88     3.78     9.63     0  02:04        3.78
  WS02004405           JUNCTION     0.86     3.80     9.65     0  02:04        3.80
  WS02004406           JUNCTION     0.85     1.72     7.55     0  02:04        1.59
  WS02004407           JUNCTION     0.28     0.94     7.25     0  02:13        0.94
  WS02004409           JUNCTION     0.55     1.40     7.17     0  02:13        1.39
  WS02004410           JUNCTION     0.56     1.30     7.02     0  02:14        1.30
  WS02004411           JUNCTION     0.56     1.21     6.89     0  02:13        1.20
  WS02004412           JUNCTION     0.56     1.11     6.75     0  02:13        1.11
  WS02004413           JUNCTION     0.69     1.15     6.62     0  02:14        1.15
  WS02006109           JUNCTION     1.04     2.64     9.26     0  02:04        2.64
  WS02006110           JUNCTION     0.96     2.76     9.34     0  02:04        2.76
  WS02006111           JUNCTION     0.47     1.86     8.57     0  02:04        1.76
  WS02006112           JUNCTION     1.02     2.68     8.56     0  02:04        2.68
  WS02006113           JUNCTION     0.54     2.73     9.62     0  02:04        2.73
  WS02006115           JUNCTION     0.73     3.26     9.40     0  02:04        3.26
  WS02006116           JUNCTION     0.79     2.41     8.45     0  02:04        1.95
  WS02006228           JUNCTION     1.11     3.03     9.68     0  02:04        3.03
  WS02006229           JUNCTION     1.12     3.25     9.94     0  02:04        3.25
  WS02006230           JUNCTION     1.04     2.65     9.39     0  02:00        2.65
  WS02006231           JUNCTION     0.75     2.20     9.32     0  02:28        2.20
  WS02006232           JUNCTION     0.83     2.18     9.22     0  01:59        2.18
  WS02006234           JUNCTION     0.72     1.96     9.12     0  01:57        1.96
  WS02006235           JUNCTION     0.73     2.00     9.16     0  02:04        1.96
  WS02006238           JUNCTION     0.75     2.12     9.26     0  02:04        2.12
  WS02006239           JUNCTION     0.68     2.03     9.24     0  02:04        2.03
  WS02006240           JUNCTION     0.63     2.10     9.39     0  02:04        2.10
  WS02006242           JUNCTION     0.66     1.55     8.82     0  01:54        1.55
  WS02006243           JUNCTION     0.56     1.37     8.79     0  02:12        1.37
  WS02006245           JUNCTION     0.53     1.28     8.76     0  02:23        1.28
  WS02006247           JUNCTION     0.53     1.47     8.97     0  02:04        1.47
  WS02006248           JUNCTION     0.48     1.10     8.69     0  01:49        1.10
  WS02006249           JUNCTION     0.50     1.09     8.69     0  01:49        1.09
  WS02006251           JUNCTION     0.62     2.21     9.88     0  02:04        2.21
  WS02006252           JUNCTION     0.41     1.50     9.74     0  00:00        1.50
  WS02006253           JUNCTION     0.71     3.52    11.16     0  02:04        3.52
  WS02006256           JUNCTION     1.11     2.35     9.28     0  00:00        2.35
  WS02006280           JUNCTION     0.35     1.83    10.10     0  02:04        1.83
  WS02006284           JUNCTION     0.60     1.95    10.35     0  02:12        1.95
  WS02006287           JUNCTION     0.34     1.74    10.70     0  02:11        1.74
  WSF200               JUNCTION     0.23     0.52     5.76     0  02:14        0.52
  YS02001580           JUNCTION     0.10     1.05     9.59     0  02:02        0.82
  YS02001583           JUNCTION     0.13     1.14     9.64     0  02:02        0.82
  YS02001586           JUNCTION     0.23     1.13     9.30     0  02:02        1.13
  YS02001590           JUNCTION     0.33     1.40     9.26     0  02:02        1.40
  YS02001593           JUNCTION     0.26     1.46     9.32     0  02:04        1.46
  YS02001596           JUNCTION     0.36     1.69     9.11     0  02:02        1.67
  YS02001600           JUNCTION     0.44     1.87     9.00     0  02:02        1.87
  YS02001601           JUNCTION     0.64     2.06     8.90     0  02:02        2.06
  YS02001602           JUNCTION     0.54     1.87     8.77     0  02:04        1.87
  YS02001605           JUNCTION     0.51     1.78     8.68     0  02:04        1.78
  YS02001607           JUNCTION     0.49     1.68     8.53     0  02:23        1.68
  YS02001610           JUNCTION     0.53     1.68     8.48     0  02:05        1.68
  YS02001613           JUNCTION     0.49     1.67     8.51     0  02:12        1.67
  YS02001616           JUNCTION     0.42     1.61     8.52     0  02:04        1.61
  YS02001619           JUNCTION     0.40     1.61     8.54     0  02:12        1.61
  YS02001622           JUNCTION     0.39     1.58     8.49     0  02:14        1.58
  YS02001625           JUNCTION     0.65     1.78     8.38     0  02:05        1.78
  YS02001629           JUNCTION     0.52     1.85     8.40     0  02:05        1.85
  YS02001633           JUNCTION     0.60     2.08     8.53     0  02:04        2.08
  YS02001641           JUNCTION     0.58     1.98     8.42     0  02:07        1.94
  YS02001644           JUNCTION     0.57     1.92     8.35     0  02:07        1.92
  YS02001647           JUNCTION     0.36     1.78     8.39     0  02:08        1.74
  YS02001649           JUNCTION     0.41     1.99     8.38     0  02:08        1.97
  YS02001652           JUNCTION     0.30     2.08     8.68     0  02:35        1.79
  YS02001655           JUNCTION     0.23     2.20     9.05     0  02:35        1.57
  YS02001658           JUNCTION     0.16     1.46     8.61     0  02:07        1.32
  YS02001661           JUNCTION     0.17     1.29     8.69     0  02:11        1.10
  YS02001664           JUNCTION     0.07     0.52     8.45     0  02:12        0.52
  YS02001745           JUNCTION     0.08     0.80     8.32     0  02:12        0.80
  YS02001748           JUNCTION     0.16     1.38     8.45     0  02:08        1.23
  YS02001751           JUNCTION     0.20     1.44     8.32     0  02:12        1.44
  YS02001754           JUNCTION     0.26     1.71     8.32     0  02:12        1.71
  YS02001757           JUNCTION     0.43     2.03     8.29     0  02:12        2.03
  YS02001759           JUNCTION     0.37     2.06     8.42     0  02:12        2.06
  YS02001762           JUNCTION     0.36     2.03     8.43     0  02:12        2.03
  YS02001765           JUNCTION     0.34     1.98     8.43     0  02:12        1.98
  YS02001767           JUNCTION     0.34     1.96     8.44     0  02:12        1.96
  YS02001770           JUNCTION     0.35     1.95     8.44     0  02:12        1.95
  YS02001774           JUNCTION     0.42     2.01     8.43     0  02:08        2.01
  YS02001779           JUNCTION     0.24     1.68     8.37     0  02:06        1.68
  YS02001783           JUNCTION     0.27     1.29     7.43     0  02:07        1.22
  YS02001784           JUNCTION     0.28     1.15     7.22     0  02:07        1.14
  YS02001786           JUNCTION     0.24     0.90     6.93     0  02:07        0.87
  YS02001788           JUNCTION     0.17     0.62     6.60     0  02:11        0.62
  YS02001790           JUNCTION     0.21     0.72     6.37     0  02:09        0.72
  YS02001791           JUNCTION     0.13     0.44     5.91     0  02:09        0.43
  YS02001793           JUNCTION     0.07     0.29     5.12     0  02:22        0.26
  YS02001882           JUNCTION     0.34     1.66     8.37     0  02:12        1.66
  YS02001884           JUNCTION     0.43     1.77     8.39     0  02:12        1.77
  YS02001887           JUNCTION     0.50     1.86     8.39     0  02:12        1.86
  YS02001890           JUNCTION     0.53     1.81     8.32     0  02:07        1.81
  YS02001895           JUNCTION     0.31     1.57     8.31     0  02:09        1.56
  YS02001898           JUNCTION     0.32     1.56     8.30     0  02:07        1.56
  YS02001901           JUNCTION     0.43     1.68     8.29     0  02:07        1.67
  YS02001904           JUNCTION     0.41     1.64     8.27     0  02:14        1.64
  YS02001907           JUNCTION     0.72     1.96     8.25     0  02:07        1.96
  YS02001910           JUNCTION     0.53     1.98     8.48     0  02:07        1.95
  YS02001915           JUNCTION     0.34     1.93     8.65     0  02:07        1.89
  YS02001918           JUNCTION     0.18     1.81     8.88     0  02:07        1.79
  YS02001920           JUNCTION     0.26     2.10     9.10     0  02:07        1.78
  YS02001923           JUNCTION     0.14     2.01     9.27     0  02:07        1.48
  YS02001926           JUNCTION     0.18     1.90     9.35     0  02:07        1.30
  YS02001929           JUNCTION     0.10     1.78     9.47     0  02:07        1.12
  YS02006553           JUNCTION     0.73     2.19     8.47     0  02:04        2.19
  YS02006556           JUNCTION     0.70     2.01     8.32     0  02:12        2.01
  YS02006558           JUNCTION     0.74     2.06     8.33     0  02:12        2.06
  YS02006561           JUNCTION     0.17     1.00     7.66     0  02:07        0.90
  YS02163301           JUNCTION     0.55     1.93     8.45     0  02:07        1.93
  YS02163601           JUNCTION     0.64     2.08     8.48     0  02:04        2.08
  YS02164001           JUNCTION     0.57     2.10     8.56     0  02:04        2.10
  YSB1154              JUNCTION     0.48     2.10    11.16     0  02:04        2.10
  YSB1171              JUNCTION     0.62     1.95    10.85     0  02:04        1.95
  YSB1174              JUNCTION     0.43     1.95    11.06     0  02:04        1.95
  YSB6556              JUNCTION     0.38     1.80    10.97     0  02:04        1.80
  CC-1                 OUTFALL      0.00     0.00     0.00     0  00:00        0.00
  CC-2                 OUTFALL      0.00     0.00     0.00     0  00:00        0.00
  JK-1                 OUTFALL      0.00     0.00     0.00     0  00:00        0.00
  JK-2                 OUTFALL      0.00     0.00     0.00     0  00:00        0.00
  WSC                  OUTFALL      0.30     0.52     1.19     0  02:17        0.52
  CC-storage           STORAGE      0.87     1.77     7.27     0  02:37        1.77
  JK-storage           STORAGE      2.15     4.21     5.01     0  02:41        4.21
  XR-storage           STORAGE      7.89     9.26     7.26     0  08:00        9.26
  
  
  *******************
  Node Inflow Summary
  *******************
  
  -------------------------------------------------------------------------------------------------
                                  Maximum  Maximum                  Lateral       Total        Flow
                                  Lateral    Total  Time of Max      Inflow      Inflow     Balance
                                   Inflow   Inflow   Occurrence      Volume      Volume       Error
  Node                 Type           LPS      LPS  days hr:min    10^6 ltr    10^6 ltr     Percent
  -------------------------------------------------------------------------------------------------
  HS02004478           JUNCTION      0.00  2305.00     0  02:12           0        8.74      -0.024
  HS02004479           JUNCTION      0.00   398.66     0  02:07           0       0.856       0.093
  HS02004480           JUNCTION      0.00  2071.21     0  02:06           0         6.5       0.035
  HS02004770           JUNCTION   1569.44  1569.44     0  02:14        2.67        2.91       0.107
  HS02004777           JUNCTION      0.03   716.69     0  02:03    0.000864         1.9       0.278
  HS02004785           JUNCTION      0.15   734.83     0  02:03     0.00432         1.9       0.044
  HS02004788           JUNCTION    571.19   845.01     0  02:03        1.03        2.93      -0.008
  HS02004792           JUNCTION   1912.85  2725.30     0  02:14        3.46        6.39       0.007
  HS02004799           JUNCTION    359.43  1724.58     0  02:05        0.58        5.84       0.050
  HS02004802           JUNCTION      0.00  1233.45     0  02:14           0        2.37       0.165
  HS02004807           JUNCTION    450.25  1474.71     0  02:14       0.709        2.46       0.176
  HS02004817           JUNCTION      0.60  1028.46     0  02:14      0.0173        1.81       0.918
  HS02004824           JUNCTION    606.32  1027.40     0  02:14        1.26        1.98       0.015
  HS02004830           JUNCTION      0.15   600.36     0  02:04     0.00432       0.918       0.146
  HS02004837           JUNCTION    414.60   782.64     0  02:04       0.856        1.26       0.055
  HS02004842           JUNCTION      0.00   781.33     0  02:05           0       0.743       1.805
  HS02004848           JUNCTION    552.07  1030.30     0  02:06        1.22         1.8      -0.025
  HS02004852           JUNCTION      0.00  1000.18     0  02:06           0        1.64      -0.041
  HS02004856           JUNCTION    182.70  1060.29     0  02:06       0.293        1.94       0.092
  HS02004862           JUNCTION    253.98  1151.31     0  02:06       0.518        2.45       0.033
  HS02004870           JUNCTION    244.47  1219.04     0  02:13       0.389        2.84      -0.009
  HS02004876           JUNCTION    240.95  1457.43     0  02:13       0.403        3.24       0.017
  HS02004881           JUNCTION    133.20  1591.12     0  02:13       0.205        3.45       0.009
  HS02004901           JUNCTION    377.91   639.37     0  02:13       0.598       0.935       0.194
  WS02001211           JUNCTION      7.35   203.65     0  03:24       0.212        5.44       0.612
  WS02001212           JUNCTION      0.00   208.76     0  03:24           0        5.41       0.290
  WS02001213           JUNCTION      0.00   211.55     0  03:24           0        5.39       0.332
  WS02003059           JUNCTION      0.00   217.29     0  03:23           0        5.38       0.595
  WS02003060           JUNCTION     16.53  1510.28     0  02:15       0.476        14.1       0.104
  WS02003066           JUNCTION      0.00  1310.62     0  02:13           0        8.28       0.017
  WS02003067           JUNCTION      0.00  1310.19     0  02:14           0        8.29       0.052
  WS02003069           JUNCTION      0.32  1510.31     0  02:15     0.00922        14.1       0.109
  WS02003072           JUNCTION      0.00  1510.27     0  02:16           0        14.1       0.147
  WS02003073           JUNCTION      1.82  1512.21     0  02:16      0.0524        14.1       0.153
  WS02004138           JUNCTION      0.00   380.00     0  00:00           0        5.25       0.052
  WS02004139           JUNCTION      0.32   190.95     0  00:29     0.00924        5.26       0.509
  WS02004401           JUNCTION      0.00  1310.58     0  02:13           0        8.39       0.121
  WS02004402           JUNCTION      0.00  1310.56     0  02:13           0        8.38       0.123
  WS02004403           JUNCTION      0.00  1310.11     0  02:13           0        8.37       0.122
  WS02004404           JUNCTION      0.16  1310.43     0  02:13     0.00467        8.36       0.098
  WS02004405           JUNCTION      0.04  1314.84     0  02:04      0.0011        8.36       0.144
  WS02004406           JUNCTION      0.00  1339.05     0  02:04           0        8.34       0.256
  WS02004407           JUNCTION      0.00  1346.83     0  02:04           0        8.32       0.016
  WS02004409           JUNCTION      0.00  1310.50     0  02:14           0        8.32       0.035
  WS02004410           JUNCTION      0.00  1310.43     0  02:14           0        8.32       0.056
  WS02004411           JUNCTION      0.00  1310.21     0  02:14           0        8.31       0.072
  WS02004412           JUNCTION      0.00  1310.02     0  02:14           0        8.31       0.094
  WS02004413           JUNCTION      0.00  1310.08     0  02:14           0         8.3       0.164
  WS02006109           JUNCTION      1.23  1290.76     0  02:12      0.0354        8.21       0.117
  WS02006110           JUNCTION      0.00  1124.47     0  02:30           0        7.94       0.096
  WS02006111           JUNCTION      0.00  1124.68     0  02:30           0        7.93       0.005
  WS02006112           JUNCTION    306.86  1310.11     0  02:13       0.491        8.42       0.238
  WS02006113           JUNCTION      0.00  1124.63     0  02:30           0        7.93       0.022
  WS02006115           JUNCTION      0.00  1310.16     0  02:13           0         8.4       0.073
  WS02006116           JUNCTION      0.00  1311.36     0  02:13           0        8.39       0.057
  WS02006228           JUNCTION      0.00  1288.87     0  02:12           0        8.17       0.056
  WS02006229           JUNCTION      0.00  2305.76     0  02:12           0        10.6       0.073
  WS02006230           JUNCTION     10.28  1027.93     0  02:12       0.296        4.25       0.218
  WS02006231           JUNCTION      0.00   453.31     0  02:04           0        2.99      -0.200
  WS02006232           JUNCTION      0.00   454.51     0  02:04           0        2.97       0.184
  WS02006234           JUNCTION      0.00   453.07     0  02:08           0        2.95      -0.165
  WS02006235           JUNCTION      0.00   458.66     0  02:04           0        3.06       0.180
  WS02006238           JUNCTION      0.00   440.63     0  02:04           0        2.68      -0.121
  WS02006239           JUNCTION      0.00   418.15     0  03:41           0        2.66      -0.118
  WS02006240           JUNCTION      0.00   418.30     0  03:41           0        2.64      -0.009
  WS02006242           JUNCTION      0.00   418.43     0  03:41           0        2.62      -0.018
  WS02006243           JUNCTION      0.00   418.44     0  03:41           0        2.19      -0.046
  WS02006245           JUNCTION      0.00   417.87     0  03:41           0        2.19       0.333
  WS02006247           JUNCTION      0.00   417.86     0  03:41           0        2.19      -0.002
  WS02006248           JUNCTION      0.00   417.86     0  03:41           0        2.42       0.024
  WS02006249           JUNCTION      0.00  1360.94     0  02:13           0        5.64       0.067
  WS02006251           JUNCTION      0.08  1626.68     0  02:13     0.00222        5.75      -0.029
  WS02006252           JUNCTION      0.00   665.87     0  02:13           0         2.8      -0.008
  WS02006253           JUNCTION     34.78  1626.56     0  02:13      0.0496        3.51       0.000
  WS02006256           JUNCTION      0.00   300.00     0  00:00           0        1.82      -0.141
  WS02006280           JUNCTION      0.00  2304.47     0  02:12           0        8.73       0.014
  WS02006284           JUNCTION      0.10  2304.59     0  02:12     0.00275        8.73      -0.005
  WS02006287           JUNCTION      0.00  2304.03     0  02:12           0        8.73       0.010
  WSF200               JUNCTION      0.00  1310.74     0  02:14           0        8.28       0.008
  YS02001580           JUNCTION      0.00    77.70     0  02:02           0       0.004       1.043
  YS02001583           JUNCTION      0.00   138.78     0  02:02           0       0.015      -5.926
  YS02001586           JUNCTION    697.01   697.04     0  02:15        1.64        1.65       0.072
  YS02001590           JUNCTION      0.00   318.72     0  02:23           0        1.32      -0.020
  YS02001593           JUNCTION      0.00   318.39     0  02:12           0        1.32       0.009
  YS02001596           JUNCTION      0.00   318.03     0  02:12           0        1.32      -0.008
  YS02001600           JUNCTION      0.00   318.15     0  02:23           0        1.32       0.009
  YS02001601           JUNCTION   1233.28  1550.63     0  02:14        2.27         3.6       0.021
  YS02001602           JUNCTION      0.00   502.97     0  02:01           0        2.28       0.015
  YS02001605           JUNCTION      0.00   503.37     0  02:01           0        2.16       0.015
  YS02001607           JUNCTION      0.00   503.11     0  02:01           0        2.16       0.090
  YS02001610           JUNCTION      0.00   666.12     0  02:15           0        2.33       0.097
  YS02001613           JUNCTION      0.00   500.92     0  02:01           0        1.88       0.089
  YS02001616           JUNCTION      0.00   499.59     0  02:01           0        1.88       0.028
  YS02001619           JUNCTION   1238.22  1238.22     0  02:15        2.63        4.33       0.003
  YS02001622           JUNCTION      0.00   925.03     0  02:13           0        4.16      -0.005
  YS02001625           JUNCTION      0.00  1308.02     0  02:14           0        4.36       0.214
  YS02001629           JUNCTION      0.00   914.47     0  02:05           0        3.36       0.014
  YS02001633           JUNCTION    927.69  1316.05     0  02:05        1.66        4.81       0.067
  YS02001641           JUNCTION      0.00  1311.71     0  02:05           0         4.6       0.057
  YS02001644           JUNCTION    828.08  1672.16     0  02:05        1.44        6.03       0.052
  YS02001647           JUNCTION      0.00  1675.57     0  02:05           0        5.64       0.006
  YS02001649           JUNCTION      0.00  1851.76     0  02:04           0        6.96       0.004
  YS02001652           JUNCTION      0.00   828.54     0  02:13           0        1.32      -0.046
  YS02001655           JUNCTION      0.15   828.18     0  02:13     0.00443        1.32      -0.145
  YS02001658           JUNCTION      0.00   829.11     0  02:13           0        1.32      -0.097
  YS02001661           JUNCTION      0.00   850.77     0  02:11           0        1.32       0.030
  YS02001664           JUNCTION    804.09   804.09     0  02:14        1.31        1.31      -0.006
  YS02001745           JUNCTION    510.86   510.86     0  02:13       0.795       0.796       0.181
  YS02001748           JUNCTION      0.04   520.60     0  02:13      0.0013       0.797      -0.261
  YS02001751           JUNCTION      0.01   520.29     0  02:13    0.000317       0.803       0.082
  YS02001754           JUNCTION      0.26   520.67     0  02:13     0.00749       0.817      -0.198
  YS02001757           JUNCTION      0.00  3070.47     0  02:11           0        10.4       0.009
  YS02001759           JUNCTION    710.23  1271.53     0  02:12         1.1        2.62      -0.011
  YS02001762           JUNCTION      0.00   695.31     0  02:10           0        1.53       0.001
  YS02001765           JUNCTION      0.00   694.45     0  02:10           0        1.53       0.013
  YS02001767           JUNCTION      0.54   694.64     0  02:10      0.0154        1.53       0.004
  YS02001770           JUNCTION   1003.77  1003.77     0  02:14        1.68        1.72       0.004
  YS02001774           JUNCTION      0.00   479.62     0  02:14           0       0.232       0.489
  YS02001779           JUNCTION      0.01   480.54     0  02:14    0.000144       0.185      -0.448
  YS02001783           JUNCTION      0.00  1164.09     0  02:12           0        4.07       0.007
  YS02001784           JUNCTION      1.06  1165.34     0  02:12      0.0305         4.1       0.013
  YS02001786           JUNCTION      0.06  1165.70     0  02:12     0.00162         4.1       0.016
  YS02001788           JUNCTION      0.07  1166.89     0  02:12     0.00204         4.1       0.008
  YS02001790           JUNCTION      0.15  1175.20     0  02:12     0.00446         4.1       0.028
  YS02001791           JUNCTION      0.00  1286.20     0  02:09           0         4.1      -0.033
  YS02001793           JUNCTION      0.00  1235.26     0  02:22           0         4.1       0.006
  YS02001882           JUNCTION      0.00    27.70     0  02:04           0      0.0128       4.834
  YS02001884           JUNCTION      0.00    54.31     0  02:04           0      0.0487       5.493
  YS02001887           JUNCTION    765.96   766.18     0  02:13        1.15        1.18       0.383
  YS02001890           JUNCTION      0.00   766.43     0  02:13           0        1.14       0.455
  YS02001895           JUNCTION      0.00   519.11     0  02:14           0        1.07       0.150
  YS02001898           JUNCTION      0.00   518.12     0  02:14           0        1.06       0.040
  YS02001901           JUNCTION      0.00   518.16     0  02:15           0        1.07       0.311
  YS02001904           JUNCTION      0.00   518.91     0  02:14           0        1.07       0.268
  YS02001907           JUNCTION      0.00  1865.71     0  02:14           0        3.58       0.506
  YS02001910           JUNCTION      0.00  1348.10     0  02:14           0        2.51       0.283
  YS02001915           JUNCTION    895.48  1347.04     0  02:14        1.59        2.55       0.065
  YS02001918           JUNCTION      0.00   454.30     0  02:14           0       0.974       0.011
  YS02001920           JUNCTION      2.87   454.23     0  02:14      0.0827       0.961       0.104
  YS02001923           JUNCTION      0.04   452.62     0  02:14     0.00109       0.865       0.020
  YS02001926           JUNCTION      0.05   452.83     0  02:14      0.0015       0.848      -0.041
  YS02001929           JUNCTION    435.69   435.69     0  02:14       0.839       0.839      -0.094
  YS02006553           JUNCTION      0.00   817.62     0  02:28           0        2.43       0.490
  YS02006556           JUNCTION      0.00   818.23     0  02:28           0        2.44       0.326
  YS02006558           JUNCTION   1025.70  1164.34     0  02:11        1.68         4.1       0.089
  YS02006561           JUNCTION      0.00  1163.49     0  02:12           0        4.07      -0.001
  YS02163301           JUNCTION      0.00   914.50     0  02:05           0        3.36       0.037
  YS02163601           JUNCTION      0.11  1315.75     0  02:05     0.00317        4.59       0.102
  YS02164001           JUNCTION      0.00  1314.52     0  02:05           0        4.59       0.043
  YSB1154              JUNCTION    414.18   414.18     0  02:14       0.693       0.694       0.209
  YSB1171              JUNCTION      0.00   993.67     0  02:14           0        1.32       0.483
  YSB1174              JUNCTION    360.26   360.26     0  02:13       0.528       0.528       0.227
  YSB6556              JUNCTION      0.00   414.21     0  02:14           0       0.694       0.155
  CC-1                 OUTFALL       0.00   683.00     0  00:00           0         4.2       0.000
  CC-2                 OUTFALL       0.00   683.00     0  00:00           0        3.99       0.000
  JK-1                 OUTFALL       0.00  1000.00     0  00:00           0        2.26       0.000
  JK-2                 OUTFALL       0.00  1000.00     0  00:00           0      0.0484       0.000
  WSC                  OUTFALL       0.00  1512.92     0  02:17           0        14.1       0.000
  CC-storage           STORAGE       0.00  3071.37     0  02:11           0        12.6      -0.149
  JK-storage           STORAGE       0.00  1244.18     0  02:27           0        4.25      -0.080
  XR-storage           STORAGE     200.00   200.00     0  00:00        5.76        6.36       0.001
  
  
  **********************
  Node Surcharge Summary
  **********************
  
  Surcharging occurs when water rises above the top of the highest conduit.
  ---------------------------------------------------------------------
                                               Max. Height   Min. Depth
                                   Hours       Above Crown    Below Rim
  Node                 Type      Surcharged         Meters       Meters
  ---------------------------------------------------------------------
  HS02004478           JUNCTION        0.49          0.667        0.273
  HS02004479           JUNCTION        0.63          1.050        0.000
  HS02004480           JUNCTION        0.67          1.100        0.000
  HS02004770           JUNCTION        0.57          0.720        0.000
  HS02004777           JUNCTION        0.57          0.780        0.000
  HS02004785           JUNCTION        0.52          0.790        0.000
  HS02004788           JUNCTION        0.51          0.720        0.000
  HS02004792           JUNCTION        0.63          0.900        0.000
  HS02004799           JUNCTION        0.76          1.060        0.000
  HS02004802           JUNCTION        0.68          1.210        0.000
  HS02004807           JUNCTION        0.66          1.220        0.000
  HS02004817           JUNCTION        1.27          1.740        0.000
  HS02004824           JUNCTION        0.52          1.310        0.000
  HS02004830           JUNCTION        0.49          1.330        0.000
  HS02004837           JUNCTION        0.45          1.340        0.000
  HS02004842           JUNCTION        0.59          1.520        0.000
  HS02004848           JUNCTION        0.41          1.370        0.000
  HS02004852           JUNCTION        0.44          1.420        0.000
  HS02004856           JUNCTION        0.43          1.300        0.000
  HS02004862           JUNCTION        0.46          1.252        0.048
  HS02004870           JUNCTION        0.48          1.400        0.000
  HS02004876           JUNCTION        0.56          1.560        0.000
  HS02004881           JUNCTION        0.54          1.226        0.224
  HS02004901           JUNCTION        0.57          0.720        0.000
  WS02004401           JUNCTION        1.53          1.265        0.395
  WS02004402           JUNCTION        1.55          1.240        0.500
  WS02004403           JUNCTION        1.55          1.296        0.734
  WS02004404           JUNCTION        1.73          2.780        0.000
  WS02004405           JUNCTION        1.68          2.800        0.000
  WS02004406           JUNCTION        1.64          0.723        1.727
  WS02004409           JUNCTION        1.05          0.398        1.962
  WS02004410           JUNCTION        1.01          0.304        2.236
  WS02004411           JUNCTION        0.91          0.209        2.321
  WS02004412           JUNCTION        0.80          0.109        2.201
  WS02004413           JUNCTION        1.30          0.147        2.053
  WS02006109           JUNCTION        2.15          1.820        0.000
  WS02006110           JUNCTION        2.00          1.850        0.000
  WS02006111           JUNCTION        1.26          1.049        0.821
  WS02006112           JUNCTION        2.04          1.680        0.000
  WS02006113           JUNCTION        1.27          1.930        0.000
  WS02006115           JUNCTION        1.47          2.250        0.000
  WS02006116           JUNCTION        1.49          1.348        0.942
  WS02006228           JUNCTION        2.14          2.200        0.000
  WS02006229           JUNCTION        0.99          1.070        0.000
  WS02006230           JUNCTION        1.79          1.570        0.000
  WS02006231           JUNCTION        1.95          1.485        0.045
  WS02006232           JUNCTION        2.02          1.480        0.000
  WS02006234           JUNCTION        1.95          1.240        0.000
  WS02006235           JUNCTION        1.96          1.290        0.000
  WS02006238           JUNCTION        1.97          1.400        0.030
  WS02006239           JUNCTION        1.94          1.290        0.000
  WS02006240           JUNCTION        1.93          1.390        0.000
  WS02006242           JUNCTION        1.94          0.820        0.000
  WS02006243           JUNCTION        1.90          0.661        0.109
  WS02006245           JUNCTION        1.89          0.567        0.283
  WS02006247           JUNCTION        1.89          0.760        0.000
  WS02006248           JUNCTION        1.87          0.380        0.000
  WS02006249           JUNCTION        1.88          0.390        0.000
  WS02006251           JUNCTION        1.83          1.180        0.000
  WS02006252           JUNCTION        1.99          1.100        0.000
  WS02006253           JUNCTION        1.84          2.480        0.000
  WS02006256           JUNCTION        4.54          2.050        0.000
  WS02006280           JUNCTION        0.79          0.780        0.000
  WS02006284           JUNCTION        0.70          0.670        0.130
  WS02006287           JUNCTION        0.60          0.742        0.148
  YS02001580           JUNCTION        0.61          0.450        0.000
  YS02001583           JUNCTION        0.62          0.500        0.000
  YS02001586           JUNCTION        0.76          0.510        0.000
  YS02001590           JUNCTION        0.84          0.750        0.000
  YS02001593           JUNCTION        0.84          0.840        0.000
  YS02001596           JUNCTION        0.96          0.956        0.114
  YS02001600           JUNCTION        1.13          1.190        0.000
  YS02001601           JUNCTION        1.44          1.440        0.000
  YS02001602           JUNCTION        1.34          1.270        0.000
  YS02001605           JUNCTION        1.30          1.180        0.000
  YS02001607           JUNCTION        0.83          0.680        0.000
  YS02001610           JUNCTION        0.86          0.680        0.000
  YS02001613           JUNCTION        0.83          0.671        0.029
  YS02001616           JUNCTION        0.78          0.610        0.000
  YS02001619           JUNCTION        0.77          0.610        0.000
  YS02001622           JUNCTION        0.77          0.582        0.038
  YS02001625           JUNCTION        0.96          0.780        0.000
  YS02001629           JUNCTION        0.72          0.470        0.000
  YS02001633           JUNCTION        0.99          1.060        0.000
  YS02001641           JUNCTION        0.94          0.979        0.121
  YS02001644           JUNCTION        0.91          0.920        0.000
  YS02001647           JUNCTION        0.69          0.777        0.123
  YS02001649           JUNCTION        0.83          0.992        0.058
  YS02001652           JUNCTION        0.62          1.055        0.075
  YS02001655           JUNCTION        0.46          1.200        0.000
  YS02001658           JUNCTION        0.25          0.464        0.836
  YS02001661           JUNCTION        0.02          0.221        1.169
  YS02001748           JUNCTION        0.19          0.298        0.892
  YS02001751           JUNCTION        0.35          0.442        0.758
  YS02001754           JUNCTION        0.54          0.661        0.489
  YS02001757           JUNCTION        0.90          1.033        0.177
  YS02001759           JUNCTION        0.81          1.059        0.151
  YS02001762           JUNCTION        0.77          1.034        0.116
  YS02001765           JUNCTION        0.72          0.983        0.117
  YS02001767           JUNCTION        0.69          0.955        0.075
  YS02001770           JUNCTION        0.66          0.920        0.000
  YS02001774           JUNCTION        0.75          1.009        0.041
  YS02001779           JUNCTION        0.53          0.680        0.000
  YS02001783           JUNCTION        0.54          0.488        1.112
  YS02001784           JUNCTION        0.52          0.353        1.137
  YS02001786           JUNCTION        0.41          0.103        1.327
  YS02001882           JUNCTION        0.49          0.657        0.173
  YS02001884           JUNCTION        0.50          0.709        0.161
  YS02001887           JUNCTION        0.53          0.806        0.144
  YS02001890           JUNCTION        0.55          0.760        0.000
  YS02001895           JUNCTION        0.48          0.566        0.184
  YS02001898           JUNCTION        0.47          0.534        0.206
  YS02001901           JUNCTION        0.52          0.680        0.190
  YS02001904           JUNCTION        0.51          0.640        0.210
  YS02001907           JUNCTION        0.78          0.950        0.000
  YS02001910           JUNCTION        0.58          0.976        0.124
  YS02001915           JUNCTION        0.48          0.927        0.073
  YS02001918           JUNCTION        0.39          0.810        0.000
  YS02001920           JUNCTION        0.41          1.096        0.044
  YS02001923           JUNCTION        0.09          0.796        0.024
  YS02001926           JUNCTION        0.12          0.900        0.000
  YS02001929           JUNCTION        0.01          0.780        0.000
  YS02006553           JUNCTION        0.80          1.190        0.000
  YS02006556           JUNCTION        0.68          0.965        0.385
  YS02006558           JUNCTION        0.66          0.964        0.436
  YS02006561           JUNCTION        0.35          0.198        0.952
  YS02163301           JUNCTION        0.97          0.929        0.101
  YS02163601           JUNCTION        1.03          1.080        0.000
  YS02164001           JUNCTION        0.94          1.100        0.000
  YSB1154              JUNCTION        0.89          1.400        0.000
  YSB1171              JUNCTION        0.89          1.100        0.000
  YSB1174              JUNCTION        0.81          1.250        0.000
  YSB6556              JUNCTION        0.74          1.100        0.000
  
  
  *********************
  Node Flooding Summary
  *********************
  
  Flooding refers to all water that overflows a node, whether it ponds or not.
  --------------------------------------------------------------------------
                                                             Total   Maximum
                                 Maximum   Time of Max       Flood    Ponded
                        Hours       Rate    Occurrence      Volume     Depth
  Node                 Flooded       LPS   days hr:min    10^6 ltr    Meters
  --------------------------------------------------------------------------
  HS02004479              0.01      6.48      0  02:04       0.000     0.000
  HS02004480              0.01      9.05      0  02:04       0.000     0.000
  HS02004770              0.38   1065.87      0  02:14       0.673     0.000
  HS02004777              0.01     22.21      0  02:03       0.000     0.000
  HS02004785              0.01     84.13      0  02:03       0.000     0.000
  HS02004788              0.01    194.31      0  02:03       0.001     0.000
  HS02004792              0.38   1582.83      0  02:14       1.134     0.000
  HS02004799              0.20    215.68      0  02:12       0.084     0.000
  HS02004802              0.01      0.81      0  02:04       0.000     0.000
  HS02004807              0.09    242.74      0  02:14       0.045     0.000
  HS02004817              0.01      0.64      0  02:04       0.000     0.000
  HS02004824              0.01     23.58      0  02:06       0.000     0.000
  HS02004830              0.01     39.32      0  02:06       0.000     0.000
  HS02004837              0.01     54.48      0  02:06       0.000     0.000
  HS02004842              0.01    174.07      0  02:06       0.001     0.000
  HS02004848              0.01    136.35      0  02:06       0.000     0.000
  HS02004852              0.01     75.94      0  02:06       0.000     0.000
  HS02004856              0.01     30.30      0  02:06       0.000     0.000
  HS02004870              0.01    317.42      0  02:06       0.000     0.000
  HS02004876              0.01    123.17      0  02:06       0.000     0.000
  HS02004901              0.45    639.36      0  02:13       0.694     0.000
  WS02004404              0.01      0.38      0  02:04       0.000     0.000
  WS02004405              0.01     42.27      0  02:04       0.000     0.000
  WS02006109              0.43    286.85      0  02:13       0.257     0.000
  WS02006110              0.01      0.15      0  02:04       0.000     0.000
  WS02006113              0.01      0.48      0  02:04       0.000     0.000
  WS02006115              0.01      0.77      0  02:04       0.000     0.000
  WS02006228              0.01      1.81      0  02:16       0.000     0.000
  WS02006229              0.01      2.59      0  02:04       0.000     0.000
  WS02006230              0.71    574.53      0  02:12       0.974     0.000
  WS02006232              0.19     10.51      0  02:04       0.000     0.000
  WS02006234              0.79    128.51      0  02:39       0.341     0.000
  WS02006235              0.01     12.15      0  02:04       0.000     0.000
  WS02006239              0.01      0.17      0  02:04       0.000     0.000
  WS02006240              0.01      0.29      0  02:04       0.000     0.000
  WS02006242              0.91    139.53      0  02:04       0.415     0.000
  WS02006247              0.01      0.17      0  02:04       0.000     0.000
  WS02006248              1.22    339.17      0  02:25       1.271     0.000
  WS02006249              1.85   1300.34      0  02:13       4.259     0.000
  WS02006251              0.01      1.85      0  02:04       0.000     0.000
  WS02006252              0.48    665.76      0  02:13       0.568     0.000
  WS02006253              0.01      0.48      0  02:04       0.000     0.000
  WS02006256              1.68    293.19      0  00:00       1.015     0.000
  WS02006280              0.01      1.91      0  02:04       0.000     0.000
  YS02001580              0.01     26.02      0  02:02       0.000     0.000
  YS02001583              0.01     61.66      0  02:02       0.000     0.000
  YS02001586              0.47    379.60      0  02:15       0.316     0.000
  YS02001590              0.01      5.44      0  02:02       0.000     0.000
  YS02001593              0.01      0.44      0  02:04       0.000     0.000
  YS02001600              0.01      2.67      0  02:02       0.000     0.000
  YS02001601              0.69   1152.63      0  02:14       1.319     0.000
  YS02001602              0.58     62.20      0  02:28       0.118     0.000
  YS02001605              0.01     16.21      0  02:04       0.000     0.000
  YS02001607              0.01      0.45      0  02:23       0.000     0.000
  YS02001610              0.52    666.04      0  02:15       0.626     0.000
  YS02001616              0.01      1.51      0  02:04       0.000     0.000
  YS02001619              0.01      2.05      0  02:12       0.000     0.000
  YS02001625              0.50   1307.75      0  02:14       1.205     0.000
  YS02001629              0.10     52.06      0  02:09       0.007     0.000
  YS02001633              0.01      0.56      0  02:04       0.000     0.000
  YS02001644              0.22    917.28      0  02:13       0.378     0.000
  YS02001655              0.01    169.40      0  02:35       0.000     0.000
  YS02001770              0.01      2.45      0  02:12       0.000     0.000
  YS02001779              0.18    480.53      0  02:14       0.164     0.000
  YS02001890              0.17    250.53      0  02:13       0.070     0.000
  YS02001907              0.34   1730.12      0  02:14       1.139     0.000
  YS02001918              0.01     92.93      0  02:07       0.001     0.000
  YS02001926              0.01     40.56      0  02:07       0.000     0.000
  YS02001929              0.01    223.15      0  02:07       0.001     0.000
  YS02006553              0.01      1.10      0  02:04       0.000     0.000
  YS02163601              0.01      0.50      0  02:04       0.000     0.000
  YS02164001              0.01      1.33      0  02:04       0.000     0.000
  YSB1154                 0.01      2.51      0  02:04       0.000     0.000
  YSB1171                 0.29    992.82      0  02:14       0.567     0.000
  YSB1174                 0.01      3.31      0  02:04       0.000     0.000
  YSB6556                 0.01      8.30      0  02:04       0.000     0.000
  
  
  **********************
  Storage Volume Summary
  **********************
  
  --------------------------------------------------------------------------------------------------
                         Average     Avg  Evap Exfil       Maximum     Max    Time of Max    Maximum
                          Volume    Pcnt  Pcnt  Pcnt        Volume    Pcnt     Occurrence    Outflow
  Storage Unit           1000 m3    Full  Loss  Loss       1000 m3    Full    days hr:min        LPS
  --------------------------------------------------------------------------------------------------
  CC-storage               2.423      38     0     0         4.922      77       0  02:37    1783.53
  JK-storage               0.108      37     0     0         0.212      73       0  02:41    2300.00
  XR-storage               0.947      66     0     0         1.111      77       0  08:00     380.00
  
  
  ***********************
  Outfall Loading Summary
  ***********************
  
  -----------------------------------------------------------
                         Flow       Avg       Max       Total
                         Freq      Flow      Flow      Volume
  Outfall Node           Pcnt       LPS       LPS    10^6 ltr
  -----------------------------------------------------------
  CC-1                  33.82    683.00    683.00       4.199
  CC-2                  32.27    683.00    683.00       3.987
  JK-1                  12.48   1000.00   1000.00       2.256
  JK-2                   0.20   1000.00   1000.00       0.048
  WSC                   99.94    642.14   1512.92      14.087
  -----------------------------------------------------------
  System                35.74   4008.14   1512.92      24.578
  
  
  ********************
  Link Flow Summary
  ********************
  
  -----------------------------------------------------------------------------
                                 Maximum  Time of Max   Maximum    Max/    Max/
                                  |Flow|   Occurrence   |Veloc|    Full    Full
  Link                 Type          LPS  days hr:min     m/sec    Flow   Depth
  -----------------------------------------------------------------------------
  1                    CONDUIT   1512.92     0  02:17      3.70    0.53    0.52
  HS02004478WS02006287 CONDUIT   2304.03     0  02:12      2.57    0.64    1.00
  HS02004479HS02004480 CONDUIT    396.52     0  02:07      0.57    0.38    1.00
  HS02004480HS02004478 CONDUIT   2069.84     0  02:06      2.96    8.72    1.00
  HS02004770HS02004777 CONDUIT    716.66     0  02:03      1.02    1.31    1.00
  HS02004777HS02004785 CONDUIT    734.68     0  02:03      1.10    0.90    1.00
  HS02004785HS02004788 CONDUIT    634.65     0  02:03      1.35    4.79    1.00
  HS02004788HS02004792 CONDUIT    821.52     0  02:04      1.45    0.54    1.00
  HS02004792HS02004799 CONDUIT   1566.96     0  02:05      2.24    0.96    1.00
  HS02004799HS02004480 CONDUIT   1722.91     0  02:05      2.46    2.18    1.00
  HS02004802HS02004478 CONDUIT   1233.49     0  02:15      1.76    1.09    1.00
  HS02004807HS02004802 CONDUIT   1233.45     0  02:14      1.76    2.36    1.00
  HS02004817HS02004807 CONDUIT   1029.05     0  02:14      1.47    0.61    1.00
  HS02004817HS02004824 CONDUIT   1027.86     0  02:14      1.47    0.46    1.00
  HS02004824HS02004830 CONDUIT    600.21     0  02:04      0.86    0.79    1.00
  HS02004830HS02004837 CONDUIT    604.02     0  02:04      0.93    0.60    1.00
  HS02004837HS02004842 CONDUIT    781.33     0  02:05      1.12    0.47    1.00
  HS02004842HS02004848 CONDUIT    781.03     0  02:05      1.23    0.45    1.00
  HS02004848HS02004852 CONDUIT   1000.18     0  02:06      1.58    1.13    1.00
  HS02004852HS02004856 CONDUIT    970.94     0  02:06      1.46    1.11    1.00
  HS02004856HS02004862 CONDUIT   1037.15     0  02:06      1.67    1.03    1.00
  HS02004862HS02004870 CONDUIT   1014.42     0  02:06      1.74    1.10    1.00
  HS02004870HS02004876 CONDUIT   1219.61     0  02:12      1.74    0.81    1.00
  HS02004876HS02004881 CONDUIT   1457.93     0  02:13      2.15   15.51    1.00
  HS02004881HS02006253 CONDUIT   1591.79     0  02:13      2.75    0.31    1.00
  HS02004901HS02004770 CONDUIT    265.79     0  02:26      0.38    1.00    1.00
  WS02001211WS02001212 CONDUIT    208.76     0  03:24      0.54    0.16    0.69
  WS02001212WS02001213 CONDUIT    211.55     0  03:24      1.04    0.33    0.56
  WS02001213WS02003059 CONDUIT    217.29     0  03:23      0.47    0.36    0.90
  WS02003059WS02003060 CONDUIT    223.21     0  03:23      0.66    0.15    0.81
  WS02003060WS02003069 CONDUIT   1509.99     0  02:15      2.09    0.59    0.61
  WS02003066WSF200     CONDUIT   1310.74     0  02:14      3.25    0.22    0.39
  WS02003067WS02003066 CONDUIT   1310.62     0  02:13      2.01    0.42    0.56
  WS02003069WS02003072 CONDUIT   1510.27     0  02:16      1.90    0.73    0.66
  WS02003072WS02003073 CONDUIT   1510.39     0  02:16      2.05    3.26    0.62
  WS02004138WS02004139 CONDUIT    190.63     0  00:29      2.18    0.04    0.42
  WS02004139WS02001211 CONDUIT    196.31     0  03:24      0.54    0.25    0.61
  WS02004401WS02004402 CONDUIT   1310.56     0  02:13      1.67    1.57    1.00
  WS02004402WS02004403 CONDUIT   1310.11     0  02:13      1.67    1.88    1.00
  WS02004403WS02004404 CONDUIT   1310.27     0  02:13      1.67    0.95    1.00
  WS02004404WS02004405 CONDUIT   1314.81     0  02:04      1.67   12.88    1.00
  WS02004405WS02004406 CONDUIT   1339.05     0  02:04      1.70    2.64    1.00
  WS02004406WS02004407 CONDUIT   1346.83     0  02:04      1.83    0.60    0.97
  WS02004407WS02004409 CONDUIT   1310.50     0  02:14      1.79    0.46    0.97
  WS02004409WS02004410 CONDUIT   1310.43     0  02:14      1.67    1.69    1.00
  WS02004410WS02004411 CONDUIT   1310.21     0  02:14      1.67    1.79    1.00
  WS02004411WS02004412 CONDUIT   1310.02     0  02:14      1.67    1.86    1.00
  WS02004412WS02004413 CONDUIT   1310.08     0  02:14      1.67    0.88    1.00
  WS02004413WS02003067 CONDUIT   1310.19     0  02:14      2.02    0.56    0.77
  WS02006109WS02006110 CONDUIT   1124.47     0  02:30      2.24    2.16    1.00
  WS02006110WS02006113 CONDUIT   1124.63     0  02:30      2.24    1.02    1.00
  WS02006111WS02006112 CONDUIT   1124.69     0  02:30      2.24    0.53    1.00
  WS02006112WS02006115 CONDUIT   1310.16     0  02:13      1.67    0.77    1.00
  WS02006113WS02006111 CONDUIT   1124.68     0  02:30      2.61    1.35    1.00
  WS02006115WS02006116 CONDUIT   1311.36     0  02:13      1.67    1.68    1.00
  WS02006116WS02004401 CONDUIT   1310.58     0  02:13      1.67    1.81    1.00
  WS02006228WS02006109 CONDUIT   1289.53     0  02:12      2.57    5.63    1.00
  WS02006229WS02006228 CONDUIT   1288.87     0  02:12      2.56    4.27    1.00
  WS02006230WS02006229 CONDUIT   1017.65     0  02:12      2.64   22.65    1.00
  WS02006231WS02006230 CONDUIT    453.31     0  02:04      1.34    6.88    1.00
  WS02006232WS02006231 CONDUIT    454.51     0  02:04      1.18    0.95    1.00
  WS02006234WS02006232 CONDUIT    453.07     0  02:08      1.41    0.92    1.00
  WS02006235WS02006234 CONDUIT    445.32     0  03:17      1.23    4.70    1.00
  WS02006238WS02006235 CONDUIT    440.63     0  02:04      1.45    0.98    1.00
  WS02006239WS02006238 CONDUIT    417.96     0  03:41      1.12    1.34    1.00
  WS02006240WS02006239 CONDUIT    418.15     0  03:41      1.26    1.32    1.00
  WS02006242WS02006240 CONDUIT    418.30     0  03:41      1.14    1.66    1.00
  WS02006243WS02006242 CONDUIT    418.43     0  03:41      1.34    0.89    1.00
  WS02006245WS02006243 CONDUIT    418.44     0  03:41      1.39    1.24    1.00
  WS02006247WS02006245 CONDUIT    417.87     0  03:41      1.37    3.31    1.00
  WS02006248WS02006247 CONDUIT    417.86     0  03:41      1.38    0.91    1.00
  WS02006249WS02006248 CONDUIT    417.86     0  03:41      1.38    2.29    1.00
  WS02006251WS02006249 CONDUIT   1360.94     0  02:13      3.54    3.92    1.00
  WS02006252WS02006251 CONDUIT    407.89     0  02:04     24.89    1.50    1.00
  WS02006253WS02006251 CONDUIT   1626.60     0  02:13      4.23    4.88    1.00
  WS02006256WS02006235 CONDUIT    288.93     0  00:00      4.23    3.06    1.00
  WS02006280WS02006229 CONDUIT   2305.76     0  02:12      4.44    0.49    1.00
  WS02006284WS02006280 CONDUIT   2304.47     0  02:12      2.96    0.96    1.00
  WS02006287WS02006284 CONDUIT   2304.49     0  02:12      2.93    1.07    1.00
  WSF200WS02003060     CONDUIT   1310.74     0  02:14      2.29    0.29    0.50
  YS02001580YS02001583 CONDUIT     77.70     0  02:02      0.57    0.30    1.00
  YS02001583YS02001586 CONDUIT    138.78     0  02:02      0.58    0.21    1.00
  YS02001586YS02001590 CONDUIT    318.72     0  02:23      1.25    0.56    1.00
  YS02001590YS02001593 CONDUIT    318.39     0  02:12      1.13    2.00    1.00
  YS02001593YS02001596 CONDUIT    318.03     0  02:12      1.73    0.50    1.00
  YS02001596YS02001600 CONDUIT    318.15     0  02:23      1.25    0.62    1.00
  YS02001600YS02001601 CONDUIT    318.16     0  02:23      1.13    0.55    1.00
  YS02001601YS02001602 CONDUIT    502.97     0  02:01      1.78    1.82    1.00
  YS02001602YS02001605 CONDUIT    503.37     0  02:01      1.78   10.65    1.00
  YS02001605YS02001607 CONDUIT    503.11     0  02:01      1.78    2.76    1.00
  YS02001607YS02001610 CONDUIT    499.42     0  02:01      0.64    0.47    1.00
  YS02001610YS02001613 CONDUIT    500.92     0  02:01      0.64    0.58    1.00
  YS02001613YS02001616 CONDUIT    499.59     0  02:01      0.64    0.43    1.00
  YS02001616YS02001619 CONDUIT    499.74     0  02:02      0.66    0.87    1.00
  YS02001619YS02001622 CONDUIT    925.03     0  02:13      1.18    1.36    1.00
  YS02001622YS02001625 CONDUIT    925.37     0  02:13      1.18    0.49    1.00
  YS02001625YS02001629 CONDUIT    914.47     0  02:05      1.16    0.43    1.00
  YS02001629YS02163301 CONDUIT    914.50     0  02:05      1.16    1.13    1.00
  YS02001633YS02163601 CONDUIT   1315.64     0  02:05      1.68    1.38    1.00
  YS02001641YS02001644 CONDUIT   1314.80     0  02:05      1.67    4.25    1.00
  YS02001644YS02001647 CONDUIT   1675.57     0  02:05      2.23    0.98    1.00
  YS02001647YS02001649 CONDUIT   1688.23     0  02:05      2.29    0.89    1.00
  YS02001649YS02001757 CONDUIT   1827.70     0  02:04      2.40    1.11    1.00
  YS02001652YS02001649 CONDUIT    828.41     0  02:13      1.05    0.41    1.00
  YS02001655YS02001652 CONDUIT    828.54     0  02:13      1.29    0.40    1.00
  YS02001658YS02001655 CONDUIT    828.02     0  02:13      1.85    0.35    1.00
  YS02001661YS02001658 CONDUIT    829.11     0  02:13      2.22    0.33    1.00
  YS02001664YS02001661 CONDUIT    850.77     0  02:11      2.14    0.27    0.76
  YS02001745YS02001748 CONDUIT    520.56     0  02:13      2.06    0.20    0.90
  YS02001748YS02001751 CONDUIT    520.28     0  02:13      1.62    0.26    1.00
  YS02001751YS02001754 CONDUIT    520.41     0  02:13      1.42    0.25    1.00
  YS02001754YS02001757 CONDUIT    519.91     0  02:13      0.66    0.21    1.00
  YS02001757CaochengTiaoxuchi CONDUIT   3071.37     0  02:11      3.91    1.33    1.00
  YS02001759YS02001757 CONDUIT   1275.39     0  02:12      1.62    0.91    1.00
  YS02001762YS02001759 CONDUIT    693.84     0  02:10      0.88    0.80    1.00
  YS02001765YS02001762 CONDUIT    695.31     0  02:10      0.89    0.65    1.00
  YS02001767YS02001765 CONDUIT    694.45     0  02:10      0.88    0.87    1.00
  YS02001770YS02001767 CONDUIT    694.11     0  02:10      0.88    2.75    1.00
  YS02001774YS02001770 CONDUIT    479.62     0  02:14      0.61    0.31    1.00
  YS02001779YS02001774 CONDUIT    480.54     0  02:14      0.61    0.24    1.00
  YS02001783YS02001784 CONDUIT   1164.28     0  02:12      2.32    1.60    1.00
  YS02001784YS02001785 CONDUIT   1165.64     0  02:12      2.32    2.71    1.00
  YS02001786YS02001788 CONDUIT   1166.82     0  02:12      2.48    2.25    0.89
  YS02001788YS02001790 CONDUIT   1175.05     0  02:12      2.72    0.87    0.84
  YS02001790YS02001791 CONDUIT   1286.20     0  02:09      3.42    1.40    0.70
  YS02001791YS02001793 CONDUIT   1235.26     0  02:22      6.76    0.53    0.44
  YS02001793JiankangQianchi CONDUIT   1244.18     0  02:27      2.49    0.10    0.65
  YS02001882YS02001884 CONDUIT     27.70     0  02:04      0.13    0.03    1.00
  YS02001884YS02001887 CONDUIT     54.31     0  02:04      0.09    0.07    1.00
  YS02001887YS02001890 CONDUIT    766.43     0  02:13      0.98    1.31    1.00
  YS02001890YS02001895 CONDUIT    519.11     0  02:14      0.66    0.24    1.00
  YS02001895YS02001898 CONDUIT    518.12     0  02:14      0.66    0.90    1.00
  YS02001898YS02001901 CONDUIT    518.16     0  02:15      0.66    0.33    1.00
  YS02001901YS02001904 CONDUIT    518.91     0  02:14      0.66    0.80    1.00
  YS02001904YS02001907 CONDUIT    520.08     0  02:14      0.66    0.18    1.00
  YS02001907YS02006553 CONDUIT    817.62     0  02:28      0.91    0.96    1.00
  YS02001910YS02001907 CONDUIT   1348.50     0  02:14      1.72    0.76    1.00
  YS02001915YS02001910 CONDUIT   1348.10     0  02:14      1.72    0.67    1.00
  YS02001918YS02001915 CONDUIT    453.93     0  02:14      0.58    0.25    1.00
  YS02001920YS02001918 CONDUIT    454.30     0  02:14      0.65    0.44    1.00
  YS02001923YS02001920 CONDUIT    451.36     0  02:14      0.69    0.20    1.00
  YS02001926YS02001923 CONDUIT    452.58     0  02:14      0.95    0.65    1.00
  YS02001929YS02001926 CONDUIT    452.78     0  02:14      1.09    0.22    1.00
  YS02006553YS02006556 CONDUIT    818.23     0  02:28      1.04    0.70    1.00
  YS02006556YS02006558 CONDUIT    819.65     0  02:28      1.04    0.65    1.00
  YS02006558YS02006561 CONDUIT   1163.49     0  02:12      4.11    2.57    1.00
  YS02006561YS02001783 CONDUIT   1164.09     0  02:12      2.32    0.60    1.00
  YS02163301YS02001633 CONDUIT    913.24     0  02:05      1.16    0.86    1.00
  YS02163601YS02164001 CONDUIT   1314.52     0  02:05      1.67    1.16    1.00
  YS02164001YS02001641 CONDUIT   1311.71     0  02:05      1.67    1.79    1.00
  YSB1154YSB6556       CONDUIT    414.21     0  02:14      1.08    0.74    1.00
  YSB1171HS02004479    CONDUIT    398.66     0  02:07      0.79    0.27    1.00
  YSB1174YSB1171       CONDUIT    360.33     0  02:13      0.94    0.55    1.00
  YSB6556YSB1171       CONDUIT    415.13     0  02:14      1.08    0.43    1.00
  CC-R1                PUMP       683.00     0  00:00              1.00
  CC-R2                PUMP       683.00     0  00:00              1.00
  CC-S1                PUMP       200.00     0  00:00              1.00
  CC-S2                PUMP       200.00     0  00:00              1.00
  JK-R1                PUMP      1000.00     0  00:00              1.00
  JK-R2                PUMP      1000.00     0  00:00              1.00
  JK-S                 PUMP       300.00     0  00:00              1.00
  XR-1                 PUMP        95.00     0  00:00              1.00
  XR-2                 PUMP        95.00     0  00:00              1.00
  XR-3                 PUMP        95.00     0  00:00              1.00
  XR-4                 PUMP        95.00     0  00:00              1.00
  
  
  ***************************
  Flow Classification Summary
  ***************************
  
  -------------------------------------------------------------------------------------
                      Adjusted    ---------- Fraction of Time in Flow Class ---------- 
                       /Actual         Up    Down  Sub   Sup   Up    Down  Norm  Inlet 
  Conduit               Length    Dry  Dry   Dry   Crit  Crit  Crit  Crit  Ltd   Ctrl  
  -------------------------------------------------------------------------------------
  1                       1.00   0.00  0.00  0.00  0.00  1.00  0.00  0.00  0.38  0.00
  HS02004478WS02006287    1.00   0.10  0.00  0.00  0.59  0.30  0.00  0.00  0.59  0.00
  HS02004479HS02004480    1.00   0.04  0.00  0.00  0.96  0.00  0.00  0.00  0.11  0.00
  HS02004480HS02004478    1.00   0.09  0.00  0.00  0.53  0.00  0.00  0.38  0.00  0.00
  HS02004770HS02004777    1.00   0.00  0.09  0.00  0.91  0.00  0.00  0.00  0.03  0.00
  HS02004777HS02004785    1.00   0.00  0.00  0.00  1.00  0.00  0.00  0.00  0.12  0.00
  HS02004785HS02004788    1.00   0.00  0.00  0.00  1.00  0.00  0.00  0.00  0.00  0.00
  HS02004788HS02004792    1.00   0.00  0.00  0.00  0.99  0.01  0.00  0.00  0.90  0.00
  HS02004792HS02004799    1.00   0.00  0.00  0.00  0.99  0.01  0.00  0.00  0.86  0.00
  HS02004799HS02004480    1.00   0.00  0.04  0.00  0.90  0.00  0.06  0.00  0.00  0.00
  HS02004802HS02004478    1.00   0.09  0.00  0.00  0.91  0.00  0.00  0.00  0.03  0.00
  HS02004807HS02004802    1.00   0.09  0.00  0.00  0.90  0.00  0.00  0.01  0.00  0.00
  HS02004817HS02004807    1.00   0.00  0.09  0.00  0.91  0.00  0.00  0.00  0.01  0.00
  HS02004817HS02004824    1.00   0.00  0.00  0.00  1.00  0.00  0.00  0.00  0.81  0.00
  HS02004824HS02004830    1.00   0.00  0.00  0.00  1.00  0.00  0.00  0.00  0.01  0.00
  HS02004830HS02004837    1.00   0.00  0.00  0.00  1.00  0.00  0.00  0.00  0.88  0.00
  HS02004837HS02004842    1.00   0.00  0.00  0.00  1.00  0.00  0.00  0.00  0.11  0.00
  HS02004842HS02004848    1.00   0.00  0.09  0.00  0.91  0.00  0.00  0.00  0.55  0.00
  HS02004848HS02004852    1.00   0.09  0.00  0.00  0.91  0.00  0.00  0.00  0.70  0.00
  HS02004852HS02004856    1.00   0.09  0.00  0.00  0.91  0.00  0.00  0.00  0.67  0.00
  HS02004856HS02004862    1.00   0.00  0.11  0.00  0.89  0.00  0.00  0.00  0.74  0.00
  HS02004862HS02004870    1.00   0.00  0.00  0.00  1.00  0.00  0.00  0.00  0.03  0.00
  HS02004870HS02004876    1.00   0.00  0.00  0.00  0.98  0.01  0.00  0.00  0.85  0.00
  HS02004876HS02004881    1.00   0.02  0.00  0.00  0.74  0.24  0.00  0.00  0.00  0.00
  HS02004881HS02006253    1.00   0.03  0.02  0.00  0.39  0.02  0.00  0.53  0.16  0.00
  HS02004901HS02004770    1.00   0.09  0.00  0.00  0.91  0.00  0.00  0.00  0.00  0.00
  WS02001211WS02001212    1.00   0.00  0.03  0.00  0.97  0.00  0.00  0.00  0.00  0.00
  WS02001212WS02001213    1.00   0.03  0.00  0.00  0.47  0.00  0.50  0.00  0.00  0.00
  WS02001213WS02003059    1.00   0.00  0.00  0.00  0.99  0.00  0.00  0.00  0.00  0.00
  WS02003059WS02003060    1.00   0.00  0.00  0.00  1.00  0.00  0.00  0.00  0.03  0.00
  WS02003060WS02003069    1.00   0.00  0.00  0.00  0.99  0.01  0.00  0.00  0.55  0.00
  WS02003066WSF200        1.00   0.06  0.00  0.00  0.00  0.94  0.00  0.00  0.66  0.00
  WS02003067WS02003066    1.00   0.05  0.00  0.00  0.94  0.00  0.00  0.00  0.00  0.00
  WS02003069WS02003072    1.00   0.00  0.00  0.00  1.00  0.00  0.00  0.00  0.66  0.00
  WS02003072WS02003073    1.00   0.00  0.00  0.00  0.00  0.00  0.00  1.00  0.00  0.00
  WS02004138WS02004139    1.00   0.00  0.01  0.00  0.97  0.01  0.00  0.02  0.98  0.00
  WS02004139WS02001211    1.00   0.00  0.00  0.00  0.99  0.00  0.00  0.00  0.00  0.00
  WS02004401WS02004402    1.00   0.03  0.00  0.00  0.97  0.00  0.00  0.00  0.00  0.00
  WS02004402WS02004403    1.00   0.03  0.00  0.00  0.97  0.00  0.00  0.00  0.00  0.00
  WS02004403WS02004404    1.00   0.00  0.03  0.00  0.97  0.00  0.00  0.00  0.00  0.00
  WS02004404WS02004405    1.00   0.00  0.00  0.00  1.00  0.00  0.00  0.00  0.01  0.00
  WS02004405WS02004406    1.00   0.00  0.00  0.00  1.00  0.00  0.00  0.00  0.00  0.00
  WS02004406WS02004407    1.00   0.00  0.04  0.00  0.96  0.00  0.00  0.00  0.00  0.00
  WS02004407WS02004409    1.00   0.04  0.00  0.00  0.95  0.01  0.00  0.00  0.83  0.00
  WS02004409WS02004410    1.00   0.04  0.00  0.00  0.96  0.00  0.00  0.00  0.00  0.00
  WS02004410WS02004411    1.00   0.04  0.00  0.00  0.96  0.00  0.00  0.00  0.00  0.00
  WS02004411WS02004412    1.00   0.04  0.00  0.00  0.96  0.00  0.00  0.00  0.00  0.00
  WS02004412WS02004413    1.00   0.04  0.00  0.00  0.95  0.00  0.00  0.00  0.00  0.00
  WS02004413WS02003067    1.00   0.05  0.01  0.00  0.00  0.00  0.95  0.00  0.00  0.00
  WS02006109WS02006110    1.00   0.00  0.01  0.00  0.98  0.00  0.01  0.00  0.00  0.00
  WS02006110WS02006113    1.00   0.01  0.01  0.00  0.98  0.00  0.00  0.00  0.00  0.00
  WS02006111WS02006112    1.00   0.02  0.00  0.00  0.97  0.00  0.00  0.00  0.77  0.00
  WS02006112WS02006115    1.00   0.02  0.00  0.00  0.97  0.00  0.00  0.00  0.00  0.00
  WS02006113WS02006111    1.00   0.02  0.00  0.00  0.31  0.67  0.00  0.00  0.09  0.00
  WS02006115WS02006116    1.00   0.03  0.00  0.00  0.97  0.00  0.00  0.01  0.00  0.00
  WS02006116WS02004401    1.00   0.03  0.00  0.00  0.97  0.00  0.00  0.00  0.00  0.00
  WS02006228WS02006109    1.00   0.00  0.00  0.00  1.00  0.00  0.00  0.00  0.00  0.00
  WS02006229WS02006228    1.00   0.00  0.00  0.00  0.99  0.00  0.00  0.01  0.00  0.00
  WS02006230WS02006229    1.00   0.00  0.00  0.00  0.98  0.00  0.00  0.02  0.01  0.00
  WS02006231WS02006230    1.00   0.00  0.00  0.00  0.50  0.00  0.50  0.00  0.00  0.00
  WS02006232WS02006231    1.00   0.00  0.00  0.00  0.99  0.00  0.00  0.00  0.00  0.00
  WS02006234WS02006232    1.00   0.00  0.00  0.00  1.00  0.00  0.00  0.00  0.35  0.00
  WS02006235WS02006234    1.00   0.00  0.00  0.00  0.71  0.00  0.29  0.00  0.00  0.00
  WS02006238WS02006235    1.00   0.00  0.00  0.00  1.00  0.00  0.00  0.00  0.00  0.00
  WS02006239WS02006238    1.00   0.00  0.00  0.00  1.00  0.00  0.00  0.00  0.46  0.00
  WS02006240WS02006239    1.00   0.00  0.00  0.00  0.62  0.00  0.00  0.38  0.01  0.00
  WS02006242WS02006240    1.00   0.00  0.00  0.00  0.99  0.00  0.00  0.00  0.00  0.00
  WS02006243WS02006242    1.00   0.00  0.00  0.00  0.99  0.00  0.00  0.00  0.65  0.00
  WS02006245WS02006243    1.00   0.00  0.00  0.00  0.89  0.00  0.00  0.11  0.00  0.00
  WS02006247WS02006245    1.00   0.00  0.00  0.00  1.00  0.00  0.00  0.00  0.00  0.00
  WS02006248WS02006247    1.00   0.00  0.00  0.00  1.00  0.00  0.00  0.00  0.61  0.00
  WS02006249WS02006248    1.00   0.00  0.00  0.00  0.54  0.00  0.46  0.00  0.00  0.00
  WS02006251WS02006249    1.00   0.00  0.00  0.00  1.00  0.00  0.00  0.00  0.66  0.00
  WS02006252WS02006251    1.00   0.00  0.19  0.00  0.39  0.00  0.43  0.00  0.00  0.00
  WS02006253WS02006251    1.00   0.00  0.00  0.00  0.96  0.00  0.04  0.00  0.00  0.00
  WS02006256WS02006235    1.00   0.00  0.00  0.00  1.00  0.00  0.00  0.00  0.00  0.00
  WS02006280WS02006229    1.00   0.09  0.00  0.00  0.25  0.04  0.00  0.61  0.01  0.00
  WS02006284WS02006280    1.00   0.09  0.00  0.00  0.18  0.03  0.00  0.70  0.00  0.00
  WS02006287WS02006284    1.00   0.08  0.03  0.00  0.49  0.41  0.00  0.00  0.65  0.00
  WSF200WS02003060        1.00   0.00  0.06  0.00  0.50  0.45  0.00  0.00  0.65  0.00
  YS02001580YS02001583    1.00   0.25  0.43  0.00  0.33  0.00  0.00  0.00  0.65  0.00
  YS02001583YS02001586    1.00   0.28  0.33  0.00  0.39  0.00  0.00  0.00  0.65  0.00
  YS02001586YS02001590    1.00   0.09  0.00  0.00  0.62  0.03  0.00  0.26  0.37  0.00
  YS02001590YS02001593    1.00   0.09  0.00  0.00  0.20  0.00  0.71  0.00  0.00  0.00
  YS02001593YS02001596    1.00   0.09  0.00  0.00  0.24  0.01  0.00  0.66  0.02  0.00
  YS02001596YS02001600    1.00   0.09  0.00  0.00  0.33  0.02  0.00  0.55  0.04  0.00
  YS02001600YS02001601    1.00   0.09  0.00  0.00  0.91  0.00  0.00  0.00  0.60  0.00
  YS02001601YS02001602    1.00   0.09  0.00  0.00  0.91  0.00  0.00  0.00  0.00  0.00
  YS02001602YS02001605    1.00   0.09  0.00  0.00  0.91  0.00  0.00  0.00  0.00  0.00
  YS02001605YS02001607    1.00   0.09  0.00  0.00  0.91  0.00  0.00  0.00  0.00  0.00
  YS02001607YS02001610    1.00   0.09  0.00  0.00  0.91  0.00  0.00  0.00  0.01  0.00
  YS02001610YS02001613    1.00   0.09  0.00  0.00  0.91  0.00  0.00  0.00  0.00  0.00
  YS02001613YS02001616    1.00   0.09  0.00  0.00  0.91  0.00  0.00  0.00  0.00  0.00
  YS02001616YS02001619    1.00   0.09  0.00  0.00  0.91  0.00  0.00  0.00  0.00  0.00
  YS02001619YS02001622    1.00   0.09  0.00  0.00  0.91  0.00  0.00  0.00  0.28  0.00
  YS02001622YS02001625    1.00   0.09  0.00  0.00  0.91  0.00  0.00  0.00  0.04  0.00
  YS02001625YS02001629    1.00   0.09  0.03  0.00  0.27  0.00  0.61  0.00  0.00  0.00
  YS02001629YS02163301    1.00   0.10  0.00  0.00  0.90  0.00  0.00  0.00  0.00  0.00
  YS02001633YS02163601    1.00   0.00  0.01  0.00  0.99  0.00  0.00  0.00  0.15  0.00
  YS02001641YS02001644    1.00   0.00  0.01  0.00  0.99  0.00  0.00  0.00  0.00  0.00
  YS02001644YS02001647    1.00   0.00  0.11  0.00  0.89  0.00  0.00  0.00  0.00  0.00
  YS02001647YS02001649    1.00   0.00  0.11  0.00  0.55  0.34  0.00  0.00  0.56  0.00
  YS02001649YS02001757    1.00   0.00  0.00  0.00  0.64  0.36  0.00  0.00  0.45  0.00
  YS02001652YS02001649    1.00   0.00  0.00  0.00  0.97  0.02  0.00  0.00  0.74  0.00
  YS02001655YS02001652    1.00   0.00  0.00  0.00  0.30  0.03  0.00  0.67  0.04  0.00
  YS02001658YS02001655    1.00   0.00  0.09  0.00  0.61  0.29  0.00  0.00  0.68  0.00
  YS02001661YS02001658    1.00   0.09  0.00  0.00  0.45  0.46  0.00  0.00  0.67  0.00
  YS02001664YS02001661    1.00   0.09  0.00  0.00  0.73  0.18  0.00  0.00  0.85  0.00
  YS02001745YS02001748    1.00   0.00  0.00  0.00  0.18  0.01  0.00  0.82  0.05  0.00
  YS02001748YS02001751    1.00   0.00  0.00  0.00  0.74  0.26  0.00  0.00  0.74  0.00
  YS02001751YS02001754    1.00   0.00  0.00  0.00  0.26  0.01  0.00  0.73  0.02  0.00
  YS02001754YS02001757    1.00   0.00  0.00  0.00  1.00  0.00  0.00  0.00  0.82  0.00
  YS02001757CaochengTiaoxuchi    1.00   0.00  0.00  0.00  1.00  0.00  0.00  0.00  0.81  0.00
  YS02001759YS02001757    1.00   0.00  0.00  0.00  1.00  0.00  0.00  0.00  0.60  0.00
  YS02001762YS02001759    1.00   0.00  0.00  0.00  1.00  0.00  0.00  0.00  0.05  0.00
  YS02001765YS02001762    1.00   0.00  0.00  0.00  1.00  0.00  0.00  0.00  0.72  0.00
  YS02001767YS02001765    1.00   0.00  0.00  0.00  1.00  0.00  0.00  0.00  0.00  0.00
  YS02001770YS02001767    1.00   0.00  0.00  0.00  1.00  0.00  0.00  0.00  0.00  0.00
  YS02001774YS02001770    1.00   0.00  0.09  0.00  0.80  0.00  0.11  0.00  0.03  0.00
  YS02001779YS02001774    1.00   0.00  0.00  0.00  1.00  0.00  0.00  0.00  0.76  0.00
  YS02001783YS02001784    1.00   0.00  0.12  0.00  0.88  0.00  0.00  0.00  0.55  0.00
  YS02001784YS02001785    1.00   0.00  0.00  0.00  1.00  0.00  0.00  0.00  0.17  0.00
  YS02001786YS02001788    1.00   0.00  0.00  0.00  0.64  0.36  0.00  0.00  0.00  0.00
  YS02001788YS02001790    1.00   0.00  0.00  0.00  0.16  0.84  0.00  0.00  0.80  0.00
  YS02001790YS02001791    1.00   0.00  0.00  0.00  0.01  0.99  0.00  0.00  0.16  0.00
  YS02001791YS02001793    1.00   0.00  0.00  0.00  0.00  1.00  0.00  0.00  0.01  0.00
  YS02001793JiankangQianchi    1.00   0.00  0.00  0.00  0.94  0.05  0.00  0.00  0.98  0.00
  YS02001882YS02001884    1.00   0.10  0.00  0.00  0.90  0.00  0.00  0.00  0.00  0.00
  YS02001884YS02001887    1.00   0.06  0.03  0.00  0.92  0.00  0.00  0.00  0.00  0.00
  YS02001887YS02001890    1.00   0.00  0.00  0.00  0.96  0.00  0.03  0.00  0.00  0.00
  YS02001890YS02001895    1.00   0.00  0.10  0.00  0.90  0.00  0.00  0.00  0.00  0.00
  YS02001895YS02001898    1.00   0.10  0.00  0.00  0.88  0.00  0.02  0.00  0.00  0.00
  YS02001898YS02001901    1.00   0.11  0.00  0.00  0.89  0.00  0.00  0.00  0.01  0.00
  YS02001901YS02001904    1.00   0.11  0.00  0.00  0.89  0.00  0.00  0.00  0.00  0.00
  YS02001904YS02001907    1.00   0.00  0.10  0.00  0.89  0.00  0.00  0.00  0.00  0.00
  YS02001907YS02006553    1.00   0.00  0.02  0.00  0.97  0.00  0.00  0.00  0.00  0.00
  YS02001910YS02001907    1.00   0.00  0.00  0.00  0.97  0.00  0.00  0.03  0.12  0.00
  YS02001915YS02001910    1.00   0.00  0.00  0.00  0.97  0.03  0.00  0.00  0.16  0.00
  YS02001918YS02001915    1.00   0.00  0.00  0.00  0.97  0.02  0.00  0.00  0.74  0.00
  YS02001920YS02001918    1.00   0.00  0.00  0.00  1.00  0.00  0.00  0.00  0.00  0.00
  YS02001923YS02001920    1.00   0.00  0.00  0.00  1.00  0.00  0.00  0.00  0.92  0.00
  YS02001926YS02001923    1.00   0.00  0.06  0.00  0.09  0.00  0.85  0.00  0.00  0.00
  YS02001929YS02001926    1.00   0.00  0.09  0.00  0.91  0.00  0.00  0.00  0.82  0.00
  YS02006553YS02006556    1.00   0.01  0.00  0.00  0.99  0.00  0.00  0.00  0.03  0.00
  YS02006556YS02006558    1.00   0.00  0.00  0.00  1.00  0.00  0.00  0.00  0.00  0.00
  YS02006558YS02006561    1.00   0.12  0.00  0.00  0.08  0.80  0.00  0.00  0.18  0.00
  YS02006561YS02001783    1.00   0.12  0.00  0.00  0.14  0.74  0.00  0.00  0.68  0.00
  YS02163301YS02001633    1.00   0.00  0.10  0.00  0.90  0.00  0.00  0.00  0.00  0.00
  YS02163601YS02164001    1.00   0.00  0.07  0.00  0.93  0.00  0.00  0.00  0.00  0.00
  YS02164001YS02001641    1.00   0.01  0.06  0.00  0.93  0.00  0.00  0.00  0.05  0.00
  YSB1154YSB6556          1.00   0.09  0.00  0.00  0.91  0.00  0.00  0.00  0.02  0.00
  YSB1171HS02004479       1.00   0.04  0.00  0.00  0.95  0.00  0.00  0.01  0.10  0.00
  YSB1174YSB1171          1.00   0.05  0.02  0.00  0.93  0.00  0.00  0.00  0.00  0.00
  YSB6556YSB1171          1.00   0.04  0.04  0.00  0.91  0.00  0.00  0.00  0.00  0.00
  
  
  *************************
  Conduit Surcharge Summary
  *************************
  
  ----------------------------------------------------------------------------
                                                           Hours        Hours 
                         --------- Hours Full --------   Above Full   Capacity
  Conduit                Both Ends  Upstream  Dnstream   Normal Flow   Limited
  ----------------------------------------------------------------------------
  HS02004478WS02006287        0.50      0.50      0.67      0.01         0.01
  HS02004479HS02004480        0.67      0.67      0.70      0.01         0.01
  HS02004480HS02004478        0.60      0.67      0.60      1.69         0.60
  HS02004770HS02004777        0.57      0.57      0.57      0.11         0.07
  HS02004777HS02004785        0.52      0.52      0.57      0.01         0.01
  HS02004785HS02004788        0.51      0.52      0.51      1.44         0.47
  HS02004788HS02004792        0.51      0.51      0.63      0.01         0.01
  HS02004792HS02004799        0.63      0.63      0.76      0.01         0.01
  HS02004799HS02004480        0.67      0.67      0.76      0.86         0.01
  HS02004802HS02004478        0.62      0.62      0.69      0.10         0.01
  HS02004807HS02004802        0.66      0.66      0.68      0.26         0.27
  HS02004817HS02004807        0.66      0.66      1.27      0.01         0.01
  HS02004817HS02004824        0.52      0.52      1.27      0.01         0.01
  HS02004824HS02004830        0.49      0.49      0.52      0.01         0.01
  HS02004830HS02004837        0.45      0.45      0.49      0.01         0.01
  HS02004837HS02004842        0.45      0.45      0.59      0.01         0.01
  HS02004842HS02004848        0.41      0.41      0.59      0.01         0.01
  HS02004848HS02004852        0.41      0.41      0.44      0.02         0.01
  HS02004852HS02004856        0.44      0.44      0.46      0.02         0.01
  HS02004856HS02004862        0.43      0.43      0.46      0.01         0.01
  HS02004862HS02004870        0.46      0.46      0.48      0.18         0.19
  HS02004870HS02004876        0.48      0.48      0.56      0.01         0.01
  HS02004876HS02004881        0.54      0.56      0.54      1.47         0.54
  HS02004881HS02006253        0.54      0.54      1.84      0.01         0.01
  HS02004901HS02004770        0.57      0.57      0.57      0.01         0.01
  WS02003072WS02003073        0.01      0.01      0.01      2.32         0.01
  WS02004401WS02004402        1.53      1.53      1.55      1.36         1.36
  WS02004402WS02004403        1.54      1.55      1.55      1.53         1.52
  WS02004403WS02004404        1.55      1.55      1.73      0.01         0.02
  WS02004404WS02004405        1.68      1.73      1.68      2.99         1.68
  WS02004405WS02004406        1.64      1.68      1.64      2.01         1.64
  WS02004406WS02004407        0.01      0.01      1.64      0.01         0.01
  WS02004407WS02004409        0.01      0.01      1.05      0.01         0.01
  WS02004409WS02004410        1.01      1.05      1.01      1.45         1.01
  WS02004410WS02004411        0.91      1.01      0.91      1.51         0.91
  WS02004411WS02004412        0.80      0.91      0.80      1.53         0.80
  WS02004412WS02004413        0.80      0.80      1.30      0.01         0.01
  WS02004413WS02003067        0.01      0.01      1.30      0.01         0.01
  WS02006109WS02006110        2.00      2.00      2.17      2.01         0.01
  WS02006110WS02006113        1.27      1.27      2.16      0.30         0.01
  WS02006111WS02006112        1.26      1.26      2.26      0.01         0.01
  WS02006112WS02006115        1.47      1.47      2.04      0.01         0.01
  WS02006113WS02006111        1.26      1.27      1.26      1.34         1.26
  WS02006115WS02006116        1.49      1.49      1.49      1.44         1.43
  WS02006116WS02004401        1.53      1.53      1.53      1.52         1.52
  WS02006228WS02006109        2.15      2.17      2.15      2.49         2.15
  WS02006229WS02006228        2.14      2.15      2.14      2.28         2.14
  WS02006230WS02006229        2.19      2.20      2.19      2.85         1.03
  WS02006231WS02006230        1.79      1.79      1.95      2.51         1.03
  WS02006232WS02006231        1.95      1.95      2.02      0.01         0.15
  WS02006234WS02006232        1.96      1.96      2.02      0.01         0.01
  WS02006235WS02006234        1.95      1.95      1.96      2.29         0.99
  WS02006238WS02006235        1.97      1.97      1.98      0.01         0.40
  WS02006239WS02006238        1.96      1.96      1.97      1.36         0.42
  WS02006240WS02006239        1.93      1.93      1.94      1.35         0.41
  WS02006242WS02006240        1.93      1.93      1.95      1.50         0.93
  WS02006243WS02006242        1.90      1.90      1.94      0.01         0.01
  WS02006245WS02006243        1.89      1.89      1.90      0.49         0.39
  WS02006247WS02006245        1.89      1.89      1.89      1.84         0.65
  WS02006248WS02006247        1.88      1.88      1.89      0.01         0.01
  WS02006249WS02006248        1.87      1.87      1.88      0.69         0.01
  WS02006251WS02006249        1.87      1.87      1.88      1.91         1.81
  WS02006252WS02006251        1.97      1.97      1.99      1.44         0.01
  WS02006253WS02006251        1.87      1.87      1.87      0.81         0.01
  WS02006256WS02006235        2.72      2.73      4.52      0.88         0.01
  WS02006280WS02006229        0.81      0.81      0.99      0.01         0.01
  WS02006284WS02006280        0.70      0.70      0.79      0.01         0.01
  WS02006287WS02006284        0.60      0.60      0.71      0.31         0.30
  YS02001580YS02001583        0.61      0.61      0.67      0.01         0.01
  YS02001583YS02001586        0.62      0.62      0.76      0.01         0.01
  YS02001586YS02001590        0.77      0.77      0.84      0.01         0.01
  YS02001590YS02001593        0.84      0.84      0.86      0.87         0.01
  YS02001593YS02001596        0.85      0.85      0.96      0.01         0.01
  YS02001596YS02001600        1.02      1.02      1.13      0.01         0.01
  YS02001600YS02001601        1.19      1.19      1.44      0.01         0.01
  YS02001601YS02001602        1.34      1.34      1.48      1.12         0.01
  YS02001602YS02001605        1.30      1.30      1.34      2.31         0.01
  YS02001605YS02001607        1.26      1.30      1.26      1.40         1.26
  YS02001607YS02001610        0.83      0.83      0.86      0.01         0.01
  YS02001610YS02001613        0.83      0.83      0.86      0.01         0.01
  YS02001613YS02001616        0.78      0.78      0.83      0.01         0.01
  YS02001616YS02001619        0.77      0.77      0.78      0.01         0.01
  YS02001619YS02001622        0.77      0.77      0.77      0.82         0.71
  YS02001622YS02001625        0.77      0.77      0.96      0.01         0.01
  YS02001625YS02001629        0.72      0.72      0.96      0.01         0.01
  YS02001629YS02163301        0.96      0.96      0.97      0.07         0.15
  YS02001633YS02163601        0.99      0.99      1.03      0.29         0.27
  YS02001641YS02001644        0.91      0.94      0.91      1.52         0.89
  YS02001644YS02001647        0.69      0.69      0.91      0.01         0.01
  YS02001647YS02001649        0.69      0.69      0.83      0.01         0.01
  YS02001649YS02001757        0.83      0.83      0.90      0.06         0.05
  YS02001652YS02001649        0.65      0.65      0.83      0.01         0.01
  YS02001655YS02001652        0.46      0.46      0.62      0.01         0.01
  YS02001658YS02001655        0.25      0.25      0.46      0.01         0.01
  YS02001661YS02001658        0.02      0.02      0.25      0.01         0.01
  YS02001664YS02001661        0.01      0.01      0.07      0.01         0.01
  YS02001745YS02001748        0.01      0.01      0.19      0.01         0.01
  YS02001748YS02001751        0.23      0.23      0.35      0.01         0.01
  YS02001751YS02001754        0.35      0.35      0.54      0.01         0.01
  YS02001754YS02001757        0.59      0.59      0.90      0.01         0.01
  YS02001757CaochengTiaoxuchi        0.90      0.90      1.41      0.33         0.32
  YS02001759YS02001757        0.81      0.81      0.90      0.01         0.01
  YS02001762YS02001759        0.77      0.77      0.81      0.01         0.02
  YS02001765YS02001762        0.72      0.72      0.77      0.01         0.01
  YS02001767YS02001765        0.69      0.69      0.72      0.01         0.02
  YS02001770YS02001767        0.68      0.68      0.69      0.53         0.45
  YS02001774YS02001770        0.66      0.66      0.75      0.01         0.01
  YS02001779YS02001774        0.53      0.53      0.75      0.01         0.01
  YS02001783YS02001784        0.52      0.54      0.52      0.71         0.52
  YS02001784YS02001785        0.41      0.52      0.41      0.96         0.41
  YS02001786YS02001788        0.01      0.41      0.01      0.82         0.01
  YS02001790YS02001791        0.01      0.01      0.01      0.50         0.01
  YS02001793JiankangQianchi        0.01      0.01      7.68      0.01         0.01
  YS02001882YS02001884        0.49      0.49      0.50      0.01         0.01
  YS02001884YS02001887        0.52      0.52      0.53      0.01         0.01
  YS02001887YS02001890        0.55      0.55      0.56      0.10         0.01
  YS02001890YS02001895        0.48      0.48      0.58      0.01         0.01
  YS02001895YS02001898        0.47      0.47      0.48      0.01         0.01
  YS02001898YS02001901        0.48      0.48      0.52      0.01         0.01
  YS02001901YS02001904        0.51      0.51      0.52      0.01         0.01
  YS02001904YS02001907        0.51      0.51      0.81      0.01         0.01
  YS02001907YS02006553        0.97      0.97      1.04      0.01         0.01
  YS02001910YS02001907        0.58      0.58      0.78      0.01         0.01
  YS02001915YS02001910        0.48      0.48      0.58      0.01         0.01
  YS02001918YS02001915        0.39      0.39      0.48      0.01         0.01
  YS02001920YS02001918        0.39      0.39      0.41      0.01         0.01
  YS02001923YS02001920        0.35      0.35      0.41      0.01         0.01
  YS02001926YS02001923        0.09      0.09      0.12      0.01         0.01
  YS02001929YS02001926        0.01      0.01      0.12      0.01         0.01
  YS02006553YS02006556        0.68      0.68      0.80      0.01         0.01
  YS02006556YS02006558        0.74      0.74      0.82      0.01         0.01
  YS02006558YS02006561        0.43      0.66      0.43      0.91         0.43
  YS02006561YS02001783        0.35      0.35      0.54      0.01         0.01
  YS02163301YS02001633        0.97      0.97      1.01      0.01         0.01
  YS02163601YS02164001        0.94      0.94      1.03      0.08         0.01
  YS02164001YS02001641        0.94      0.94      0.94      0.68         0.61
  YSB1154YSB6556              0.74      0.74      0.89      0.01         0.01
  YSB1171HS02004479           0.63      0.63      0.89      0.01         0.01
  YSB1174YSB1171              0.81      0.81      1.17      0.01         0.01
  YSB6556YSB1171              0.74      0.74      1.33      0.01         0.01
  
  
  ***************
  Pumping Summary
  ***************
  
  ---------------------------------------------------------------------------------------------------------
                                                  Min       Avg       Max     Total     Power    % Time Off
                        Percent   Number of      Flow      Flow      Flow    Volume     Usage    Pump Curve
  Pump                 Utilized   Start-Ups       LPS       LPS       LPS  10^6 ltr     Kw-hr    Low   High
  ---------------------------------------------------------------------------------------------------------
  CC-R1                   21.35           2      0.00    683.00    683.00     4.199     78.33    0.0   22.8
  CC-R2                   20.27           2      0.00    683.00    683.00     3.987     74.40    0.0   24.0
  CC-S1                   24.17           2      0.00    200.00    200.00     1.392      9.13    0.0    0.0
  CC-S2                   22.53           2      0.00    200.00    200.00     1.298      8.48    0.0    0.0
  JK-R1                    7.84           5      0.00   1000.00   1000.00     2.257     21.30    0.0    0.0
  JK-R2                    0.16           1      0.00   1000.00   1000.00     0.047      0.36    0.0    0.0
  JK-S                    21.07           3      0.00    300.00    300.00     1.820     29.56    0.0    0.0
  XR-1                    97.91           2      0.00     95.00     95.00     2.679      9.62    0.0    0.0
  XR-2                    93.94           2      0.00     95.00     95.00     2.570      8.78    0.0    0.0
  XR-3                     0.00           1      0.00     95.00     95.00     0.000      0.00    0.0    0.0
  XR-4                     0.00           1      0.00     95.00     95.00     0.000      0.00    0.0    0.0
  

  Analysis begun on:  Sat Nov 19 16:23:11 2022
  Analysis ended on:  Sat Nov 19 16:23:13 2022
  Total elapsed time: 00:00:02