
  OWA STORM WATER MANAGEMENT MODEL - VERSION v5.1.14 (OWA 2023-01-25)
  --------------------------------------------------------------

  WARNING 04: minimum elevation drop used for Conduit WS02004404WS02004405
  WARNING 03: negative offset ignored for Link YS02001904YS02001907
  
  *********************************************************
  NOTE: The summary statistics displayed in this report are
  based on results found at every computational time step,  
  not just on results from each reporting time step.
  *********************************************************
  
  ****************
  Analysis Options
  ****************
  Flow Units ............... LPS
  Process Models:
    Rainfall/Runoff ........ YES
    RDII ................... NO
    Snowmelt ............... NO
    Groundwater ............ NO
    Flow Routing ........... YES
    Ponding Allowed ........ NO
    Water Quality .......... NO
  Infiltration Method ...... HORTON
  Flow Routing Method ...... DYNWAVE
  Surcharge Method ......... EXTRAN
  Starting Date ............ 08/28/2015 08:00:00
  Ending Date .............. 08/28/2015 16:00:00
  Antecedent Dry Days ...... 8.0
  Report Time Step ......... 00:01:00
  Wet Time Step ............ 00:01:00
  Dry Time Step ............ 00:01:00
  Routing Time Step ........ 30.00 sec
  Variable Time Step ....... YES
  Maximum Trials ........... 8
  Number of Threads ........ 4
  Head Tolerance ........... 0.001500 m
  
  
  **************************        Volume         Depth
  Runoff Quantity Continuity     hectare-m            mm
  **************************     ---------       -------
  Total Precipitation ......         1.890        31.197
  Evaporation Loss .........         0.000         0.000
  Infiltration Loss ........         0.216         3.567
  Surface Runoff ...........         1.613        26.632
  Final Storage ............         0.061         1.004
  Continuity Error (%) .....        -0.018
  
  
  **************************        Volume        Volume
  Flow Routing Continuity        hectare-m      10^6 ltr
  **************************     ---------     ---------
  Dry Weather Inflow .......         0.630         6.296
  Wet Weather Inflow .......         1.613        16.133
  Groundwater Inflow .......         0.000         0.000
  RDII Inflow ..............         0.000         0.000
  External Inflow ..........         0.105         1.045
  External Outflow .........         1.919        19.195
  Flooding Loss ............         0.421         4.209
  Evaporation Loss .........         0.000         0.000
  Exfiltration Loss ........         0.000         0.000
  Initial Stored Volume ....         0.303         3.031
  Final Stored Volume ......         0.322         3.222
  Continuity Error (%) .....        -0.457
  
  
  *************************
  Highest Continuity Errors
  *************************
  Node YS02001583 (-8.34%)
  Node YS02001884 (5.08%)
  Node WS02006256 (-3.12%)
  Node HS02004842 (2.58%)
  Node YS02001774 (1.75%)
  
  
  ***************************
  Time-Step Critical Elements
  ***************************
  Link WS02006252WS02006251 (31.85%)
  Link WS02006280WS02006229 (26.61%)
  Link WS02006238WS02006235 (16.69%)
  Link WS02004404WS02004405 (5.88%)
  Link WS02003066WSF200 (4.36%)
  
  
  ********************************
  Highest Flow Instability Indexes
  ********************************
  Link WS02006113WS02006111 (40)
  Link WS02006111WS02006112 (19)
  Link WS02006256WS02006235 (16)
  Link WS02006238WS02006235 (15)
  Link WS02006252WS02006251 (14)
  
  
  *************************
  Routing Time Step Summary
  *************************
  Minimum Time Step           :     0.01 sec
  Average Time Step           :     1.84 sec
  Maximum Time Step           :     6.46 sec
  Percent in Steady State     :    -0.00
  Average Iterations per Step :     3.14
  Percent Not Converging      :    12.10
  
  
  ***************************
  Subcatchment Runoff Summary
  ***************************
  
  ------------------------------------------------------------------------------------------------------------------------------
                            Total      Total      Total      Total     Imperv       Perv      Total       Total     Peak  Runoff
                           Precip      Runon       Evap      Infil     Runoff     Runoff     Runoff      Runoff   Runoff   Coeff
  Subcatchment                 mm         mm         mm         mm         mm         mm         mm    10^6 ltr      LPS
  ------------------------------------------------------------------------------------------------------------------------------
  sub0                      31.20       0.00       0.00       0.93      27.76       1.25      29.01        0.02    15.91   0.930
  sub1                      31.20       0.00       0.00       1.56      26.51       1.87      28.38        0.19   101.63   0.910
  sub10                     31.20       0.00       0.00       1.11      27.41       1.39      28.80        0.32   176.04   0.923
  sub11                     31.20       0.00       0.00       1.09      27.43       1.41      28.84        0.34   197.69   0.924
  sub12                     31.20       0.00       0.00       1.78      25.96       2.28      28.24        0.25   160.44   0.905
  sub14                     31.20       0.00       0.00       1.24      27.13       1.57      28.69        0.27   156.25   0.920
  sub15                     31.20       0.00       0.00       4.80      20.86       4.56      25.43        0.44   224.22   0.815
  sub16                     31.20       0.00       0.00       4.99      19.99       5.31      25.29        0.26   151.29   0.811
  sub17                     31.20       0.00       0.00       4.86      20.28       5.12      25.41        0.22   122.83   0.814
  sub2                      31.20       0.00       0.00       6.69      18.75       4.85      23.60        0.22    96.06   0.756
  sub22                     31.20       0.00       0.00       7.22      17.00       6.20      23.19        1.47   725.07   0.743
  sub23                     31.20       0.00       0.00       5.93      18.79       5.62      24.40        1.16   610.69   0.782
  sub3                      31.20       0.00       0.00       7.13      18.71       4.41      23.12        0.52   204.87   0.741
  sub4                      31.20       0.00       0.00       1.73      26.36       1.70      28.06        0.59   231.85   0.899
  sub5                      31.20       0.00       0.00       0.97      27.70       1.22      28.92        0.33   177.75   0.927
  sub60                     31.20       0.00       0.00       1.67      26.24       2.08      28.32        0.37   221.99   0.908
  sub61                     31.20       0.00       0.00       2.41      24.76       2.89      27.65        0.51   303.53   0.886
  sub62                     31.20       0.00       0.00       1.11      27.41       1.39      28.80        0.79   429.94   0.923
  sub63                     31.20       0.00       0.00       4.42      21.17       4.62      25.80        0.59   324.57   0.827
  sub64                     31.20       0.00       0.00       2.24      25.31       2.44      27.75        0.67   336.59   0.889
  sub65                     31.20       0.00       0.00       1.94      25.88       2.12      28.00        0.77   375.67   0.898
  sub66                     31.20       0.00       0.00       5.31      21.07       3.74      24.81        1.16   463.33   0.795
  sub67                     31.20       0.00       0.00       1.08      27.45       1.42      28.87        0.54   344.79   0.925
  sub68                     31.20       0.00       0.00       2.00      25.64       2.37      28.01        0.77   436.36   0.898
  sub69                     31.20       0.00       0.00       1.73      26.40       2.95      29.36        1.09   510.07   0.941
  sub7                      31.20       0.00       0.00       1.23      27.14       1.58      28.72        0.10    58.85   0.921
  sub70                     31.20       0.00       0.00       5.53      20.43       5.08      25.51        0.74   265.27   0.818
  sub71                     31.20       0.00       0.00       1.14      27.37       1.36      28.73        0.75   369.87   0.921
  sub72                     31.20       0.00       0.00       1.01      27.61       1.17      28.78        0.40   174.99   0.923
  sub8                      31.20       0.00       0.00       1.24      27.13       1.57      28.70        0.18   106.53   0.920
  sub9                      31.20       0.00       0.00       1.24      27.13       1.57      28.70        0.14    79.51   0.920
  
  
  ******************
  Node Depth Summary
  ******************
  
  ---------------------------------------------------------------------------------
                                 Average  Maximum  Maximum  Time of Max    Reported
                                   Depth    Depth      HGL   Occurrence   Max Depth
  Node                 Type       Meters   Meters   Meters  days hr:min      Meters
  ---------------------------------------------------------------------------------
  HS02004478           JUNCTION     0.13     1.48    10.71     0  02:06        1.17
  HS02004479           JUNCTION     0.19     1.69    10.90     0  02:06        1.42
  HS02004480           JUNCTION     0.16     1.65    10.90     0  02:06        1.38
  HS02004770           JUNCTION     0.18     1.42    11.25     0  02:01        1.42
  HS02004777           JUNCTION     0.20     1.48    11.28     0  02:01        1.44
  HS02004785           JUNCTION     0.10     1.49    11.39     0  02:01        1.29
  HS02004788           JUNCTION     0.08     1.42    11.32     0  02:01        1.27
  HS02004792           JUNCTION     0.11     1.60    11.12     0  02:02        1.55
  HS02004799           JUNCTION     0.21     1.76    10.97     0  02:06        1.59
  HS02004802           JUNCTION     0.22     1.60    10.73     0  02:06        1.27
  HS02004807           JUNCTION     0.19     1.58    10.75     0  02:06        1.23
  HS02004817           JUNCTION     0.49     1.92    10.77     0  02:06        1.55
  HS02004824           JUNCTION     0.08     1.57    10.97     0  02:03        1.00
  HS02004830           JUNCTION     0.08     1.71    11.18     0  02:03        0.93
  HS02004837           JUNCTION     0.06     1.58    11.16     0  02:03        0.81
  HS02004842           JUNCTION     0.35     1.70    10.97     0  02:06        1.08
  HS02004848           JUNCTION     0.04     1.42    11.02     0  02:06        0.73
  HS02004852           JUNCTION     0.05     1.82    11.33     0  02:06        0.78
  HS02004856           JUNCTION     0.11     1.42    10.85     0  02:06        0.85
  HS02004862           JUNCTION     0.06     2.00    11.38     0  02:05        0.85
  HS02004870           JUNCTION     0.05     2.10    11.39     0  02:05        0.86
  HS02004876           JUNCTION     0.09     2.26    11.29     0  02:05        1.05
  HS02004881           JUNCTION     0.05     1.94    10.97     0  02:05        0.97
  HS02004901           JUNCTION     0.19     1.42    11.24     0  02:01        1.42
  WS02001211           JUNCTION     0.62     0.79     5.63     0  02:06        0.79
  WS02001212           JUNCTION     0.36     0.55     5.62     0  02:08        0.55
  WS02001213           JUNCTION     0.59     0.85     5.61     0  02:08        0.85
  WS02003059           JUNCTION     0.65     0.92     5.61     0  02:09        0.92
  WS02003060           JUNCTION     0.38     0.66     5.60     0  02:09        0.66
  WS02003066           JUNCTION     0.23     0.44     5.99     0  02:04        0.44
  WS02003067           JUNCTION     0.56     0.87     6.19     0  02:04        0.87
  WS02003069           JUNCTION     0.42     0.75     5.34     0  02:08        0.75
  WS02003072           JUNCTION     0.49     0.79     5.16     0  02:08        0.79
  WS02003073           JUNCTION     0.29     0.50     4.56     0  02:09        0.50
  WS02004138           JUNCTION     0.13     0.14     7.39     0  00:32        0.14
  WS02004139           JUNCTION     0.56     0.73     5.64     0  02:07        0.73
  WS02004401           JUNCTION     0.74     1.77     7.77     0  01:56        1.74
  WS02004402           JUNCTION     0.77     1.72     7.68     0  01:56        1.68
  WS02004403           JUNCTION     0.78     1.65     7.58     0  01:56        1.61
  WS02004404           JUNCTION     0.85     1.65     7.50     0  01:56        1.63
  WS02004405           JUNCTION     0.84     1.59     7.44     0  01:56        1.57
  WS02004406           JUNCTION     0.83     1.47     7.30     0  02:02        1.46
  WS02004407           JUNCTION     0.25     0.80     7.11     0  02:04        0.80
  WS02004409           JUNCTION     0.53     1.30     7.07     0  02:03        1.30
  WS02004410           JUNCTION     0.54     1.23     6.95     0  02:04        1.22
  WS02004411           JUNCTION     0.55     1.15     6.83     0  02:03        1.15
  WS02004412           JUNCTION     0.55     1.07     6.71     0  02:04        1.06
  WS02004413           JUNCTION     0.70     1.12     6.59     0  02:04        1.12
  WS02006109           JUNCTION     0.90     2.64     9.26     0  02:02        2.64
  WS02006110           JUNCTION     0.86     2.34     8.93     0  02:03        2.34
  WS02006111           JUNCTION     0.34     1.61     8.31     0  02:02        1.60
  WS02006112           JUNCTION     0.94     2.21     8.09     0  02:03        2.21
  WS02006113           JUNCTION     0.44     1.76     8.65     0  01:56        1.73
  WS02006115           JUNCTION     0.66     1.82     7.95     0  02:03        1.82
  WS02006116           JUNCTION     0.73     1.82     7.86     0  01:56        1.82
  WS02006228           JUNCTION     0.93     3.00     9.65     0  02:06        2.93
  WS02006229           JUNCTION     0.93     3.18     9.88     0  02:06        3.07
  WS02006230           JUNCTION     0.90     2.65     9.39     0  01:59        2.65
  WS02006231           JUNCTION     0.64     2.19     9.31     0  02:07        2.19
  WS02006232           JUNCTION     0.76     2.18     9.22     0  01:59        2.18
  WS02006234           JUNCTION     0.66     1.96     9.12     0  01:58        1.96
  WS02006235           JUNCTION     0.69     2.00     9.16     0  02:26        1.93
  WS02006238           JUNCTION     0.71     2.03     9.17     0  02:26        1.93
  WS02006239           JUNCTION     0.67     1.88     9.09     0  02:26        1.80
  WS02006240           JUNCTION     0.63     1.69     8.98     0  02:26        1.66
  WS02006242           JUNCTION     0.69     1.55     8.82     0  01:55        1.55
  WS02006243           JUNCTION     0.59     1.48     8.90     0  01:55        1.48
  WS02006245           JUNCTION     0.57     1.56     9.05     0  01:55        1.56
  WS02006247           JUNCTION     0.59     1.47     8.97     0  01:55        1.47
  WS02006248           JUNCTION     0.54     1.10     8.69     0  01:55        1.10
  WS02006249           JUNCTION     0.56     1.09     8.69     0  01:55        1.09
  WS02006251           JUNCTION     0.60     2.21     9.88     0  02:05        2.00
  WS02006252           JUNCTION     0.42     1.50     9.74     0  00:00        1.50
  WS02006253           JUNCTION     0.65     3.52    11.16     0  01:56        2.33
  WS02006256           JUNCTION     0.99     2.35     9.28     0  00:00        2.35
  WS02006280           JUNCTION     0.17     1.70     9.97     0  02:06        1.55
  WS02006284           JUNCTION     0.44     1.88    10.28     0  02:06        1.66
  WS02006287           JUNCTION     0.18     1.65    10.60     0  02:06        1.35
  WSF200               JUNCTION     0.23     0.50     5.73     0  02:08        0.50
  YS02001580           JUNCTION     0.03     1.05     9.59     0  02:02        0.64
  YS02001583           JUNCTION     0.06     1.14     9.64     0  02:02        0.69
  YS02001586           JUNCTION     0.10     1.13     9.30     0  02:02        1.01
  YS02001590           JUNCTION     0.18     1.40     9.26     0  02:00        1.27
  YS02001593           JUNCTION     0.12     1.36     9.22     0  02:02        1.21
  YS02001596           JUNCTION     0.16     1.70     9.12     0  02:02        1.60
  YS02001600           JUNCTION     0.21     1.87     9.00     0  02:02        1.83
  YS02001601           JUNCTION     0.39     2.06     8.90     0  02:01        2.06
  YS02001602           JUNCTION     0.31     1.87     8.77     0  02:01        1.87
  YS02001605           JUNCTION     0.29     1.78     8.68     0  02:02        1.74
  YS02001607           JUNCTION     0.30     1.64     8.49     0  02:02        1.53
  YS02001610           JUNCTION     0.34     1.68     8.48     0  02:02        1.58
  YS02001613           JUNCTION     0.30     1.67     8.51     0  02:02        1.49
  YS02001616           JUNCTION     0.23     1.61     8.52     0  02:02        1.40
  YS02001619           JUNCTION     0.21     1.59     8.52     0  02:02        1.38
  YS02001622           JUNCTION     0.20     1.57     8.48     0  02:02        1.36
  YS02001625           JUNCTION     0.46     1.78     8.38     0  02:02        1.60
  YS02001629           JUNCTION     0.30     1.85     8.40     0  02:02        1.60
  YS02001633           JUNCTION     0.38     1.80     8.25     0  02:02        1.62
  YS02001641           JUNCTION     0.37     1.45     7.89     0  02:08        1.39
  YS02001644           JUNCTION     0.36     1.38     7.81     0  02:08        1.33
  YS02001647           JUNCTION     0.16     1.07     7.68     0  02:08        1.02
  YS02001649           JUNCTION     0.19     1.15     7.54     0  02:10        1.12
  YS02001652           JUNCTION     0.10     0.95     7.54     0  02:10        0.92
  YS02001655           JUNCTION     0.07     0.68     7.53     0  02:10        0.66
  YS02001658           JUNCTION     0.04     0.36     7.50     0  02:09        0.36
  YS02001661           JUNCTION     0.10     0.31     7.72     0  02:02        0.31
  YS02001664           JUNCTION     0.03     0.22     8.14     0  02:03        0.22
  YS02001745           JUNCTION     0.03     0.20     7.71     0  02:02        0.20
  YS02001748           JUNCTION     0.04     0.33     7.41     0  02:10        0.29
  YS02001751           JUNCTION     0.05     0.54     7.42     0  02:10        0.54
  YS02001754           JUNCTION     0.09     0.81     7.42     0  02:09        0.77
  YS02001757           JUNCTION     0.22     1.15     7.41     0  02:11        1.11
  YS02001759           JUNCTION     0.17     1.07     7.43     0  02:11        1.06
  YS02001762           JUNCTION     0.16     1.03     7.43     0  02:11        1.00
  YS02001765           JUNCTION     0.14     0.97     7.42     0  02:11        0.95
  YS02001767           JUNCTION     0.14     0.92     7.41     0  02:09        0.91
  YS02001770           JUNCTION     0.15     0.93     7.43     0  02:09        0.93
  YS02001774           JUNCTION     0.21     1.03     7.45     0  02:08        0.99
  YS02001779           JUNCTION     0.06     0.75     7.43     0  02:08        0.73
  YS02001783           JUNCTION     0.16     1.11     7.25     0  02:08        1.09
  YS02001784           JUNCTION     0.18     1.03     7.09     0  02:08        1.02
  YS02001786           JUNCTION     0.16     0.82     6.85     0  02:06        0.81
  YS02001788           JUNCTION     0.11     0.59     6.56     0  02:07        0.59
  YS02001790           JUNCTION     0.13     0.68     6.33     0  02:08        0.68
  YS02001791           JUNCTION     0.09     0.41     5.88     0  02:07        0.40
  YS02001793           JUNCTION     0.04     0.23     5.06     0  02:10        0.23
  YS02001882           JUNCTION     0.20     1.36     8.07     0  02:06        1.36
  YS02001884           JUNCTION     0.29     1.46     8.07     0  02:06        1.46
  YS02001887           JUNCTION     0.37     1.53     8.07     0  02:06        1.53
  YS02001890           JUNCTION     0.40     1.56     8.07     0  02:06        1.55
  YS02001895           JUNCTION     0.18     1.31     8.06     0  02:06        1.30
  YS02001898           JUNCTION     0.18     1.31     8.04     0  02:06        1.30
  YS02001901           JUNCTION     0.29     1.42     8.03     0  02:07        1.42
  YS02001904           JUNCTION     0.27     1.40     8.03     0  02:08        1.40
  YS02001907           JUNCTION     0.59     1.74     8.02     0  02:08        1.73
  YS02001910           JUNCTION     0.39     1.54     8.05     0  02:08        1.52
  YS02001915           JUNCTION     0.20     1.35     8.06     0  02:08        1.33
  YS02001918           JUNCTION     0.09     1.00     8.07     0  02:07        0.99
  YS02001920           JUNCTION     0.16     1.06     8.07     0  02:07        1.06
  YS02001923           JUNCTION     0.06     0.82     8.08     0  02:07        0.82
  YS02001926           JUNCTION     0.10     0.65     8.09     0  02:08        0.62
  YS02001929           JUNCTION     0.04     0.39     8.09     0  02:07        0.39
  YS02006553           JUNCTION     0.59     1.73     8.01     0  02:07        1.71
  YS02006556           JUNCTION     0.56     1.67     7.98     0  02:08        1.66
  YS02006558           JUNCTION     0.61     1.70     7.97     0  02:08        1.69
  YS02006561           JUNCTION     0.09     0.69     7.35     0  02:08        0.69
  YS02163301           JUNCTION     0.32     1.84     8.36     0  02:02        1.60
  YS02163601           JUNCTION     0.42     1.67     8.07     0  02:02        1.56
  YS02164001           JUNCTION     0.35     1.49     7.95     0  02:02        1.43
  YSB1154              JUNCTION     0.32     1.91    10.97     0  02:06        1.61
  YSB1171              JUNCTION     0.47     1.95    10.85     0  02:02        1.74
  YSB1174              JUNCTION     0.28     1.80    10.91     0  02:06        1.54
  YSB6556              JUNCTION     0.22     1.77    10.94     0  02:06        1.48
  CC-1                 OUTFALL      0.00     0.00     0.00     0  00:00        0.00
  CC-2                 OUTFALL      0.00     0.00     0.00     0  00:00        0.00
  JK-1                 OUTFALL      0.00     0.00     0.00     0  00:00        0.00
  JK-2                 OUTFALL      0.00     0.00     0.00     0  00:00        0.00
  WSC                  OUTFALL      0.29     0.50     1.17     0  02:09        0.50
  CC-storage           STORAGE      0.78     1.40     6.90     0  02:23        1.40
  JK-storage           STORAGE      1.31     4.20     5.00     0  02:27        4.14
  XR-storage           STORAGE      7.93     9.26     7.26     0  08:00        9.26
  
  
  *******************
  Node Inflow Summary
  *******************
  
  -------------------------------------------------------------------------------------------------
                                  Maximum  Maximum                  Lateral       Total        Flow
                                  Lateral    Total  Time of Max      Inflow      Inflow     Balance
                                   Inflow   Inflow   Occurrence      Volume      Volume       Error
  Node                 Type           LPS      LPS  days hr:min    10^6 ltr    10^6 ltr     Percent
  -------------------------------------------------------------------------------------------------
  HS02004478           JUNCTION      0.00  2068.67     0  02:02           0        5.35      -0.012
  HS02004479           JUNCTION      0.00   363.73     0  02:02           0       0.583       0.140
  HS02004480           JUNCTION      0.00  2053.87     0  02:02           0        4.19       0.064
  HS02004770           JUNCTION    610.69   744.67     0  02:01        1.16         1.4       0.221
  HS02004777           JUNCTION      0.03   748.86     0  02:01    0.000864        1.39       0.378
  HS02004785           JUNCTION      0.15   761.52     0  02:01     0.00432        1.39       0.040
  HS02004788           JUNCTION    225.89   886.06     0  02:01       0.485        1.87      -0.012
  HS02004792           JUNCTION    725.35  1572.86     0  02:02        1.47        3.34       0.010
  HS02004799           JUNCTION    156.25  1727.90     0  02:02       0.273        3.61       0.068
  HS02004802           JUNCTION      0.00   343.32     0  02:19           0        1.21       0.319
  HS02004807           JUNCTION    197.69   428.67     0  02:02       0.335        1.27       0.313
  HS02004817           JUNCTION      0.60   430.81     0  02:02      0.0173        1.01       1.644
  HS02004824           JUNCTION    231.90   647.24     0  02:02       0.587        1.13       0.066
  HS02004830           JUNCTION      0.15   668.67     0  02:02     0.00432       0.674       0.200
  HS02004837           JUNCTION    182.39   808.03     0  02:02       0.501       0.837       0.056
  HS02004842           JUNCTION      0.00   825.53     0  02:03           0       0.504       2.645
  HS02004848           JUNCTION    204.87  1025.63     0  02:03        0.52       0.891       0.021
  HS02004852           JUNCTION      0.00   962.28     0  02:03           0       0.771       0.023
  HS02004856           JUNCTION     79.51   994.71     0  02:03       0.138       0.909       0.163
  HS02004862           JUNCTION     96.26  1078.83     0  02:04       0.226        1.13      -0.017
  HS02004870           JUNCTION    106.53  1181.82     0  02:04       0.183        1.32       0.018
  HS02004876           JUNCTION    101.63  1231.04     0  02:04       0.189         1.5       0.026
  HS02004881           JUNCTION     58.85  1226.49     0  02:04      0.0968         1.6       0.015
  HS02004901           JUNCTION    151.29   164.30     0  02:03       0.265       0.266       0.684
  WS02001211           JUNCTION      7.35   212.13     0  02:02       0.212        5.44       0.613
  WS02001212           JUNCTION      0.00   212.80     0  02:34           0        5.41       0.289
  WS02001213           JUNCTION      0.00   215.66     0  02:34           0        5.39       0.335
  WS02003059           JUNCTION      0.00   220.45     0  02:28           0        5.38       0.598
  WS02003060           JUNCTION     16.53  1436.39     0  02:07       0.476        14.6       0.102
  WS02003066           JUNCTION      0.00  1225.95     0  02:04           0        8.81       0.019
  WS02003067           JUNCTION      0.00  1224.54     0  02:04           0        8.81       0.051
  WS02003069           JUNCTION      0.32  1432.92     0  02:09     0.00922        14.6       0.109
  WS02003072           JUNCTION      0.00  1431.47     0  02:10           0        14.6       0.145
  WS02003073           JUNCTION      1.82  1432.83     0  02:10      0.0524        14.6       0.152
  WS02004138           JUNCTION      0.00   380.00     0  00:00           0        5.25       0.055
  WS02004139           JUNCTION      0.32   190.32     0  00:32     0.00924        5.26       0.509
  WS02004401           JUNCTION      0.00  1228.56     0  02:03           0        8.92       0.122
  WS02004402           JUNCTION      0.00  1229.19     0  02:03           0        8.91       0.124
  WS02004403           JUNCTION      0.00  1229.96     0  02:03           0         8.9       0.119
  WS02004404           JUNCTION      0.16  1231.55     0  02:03     0.00467        8.89       0.102
  WS02004405           JUNCTION      0.04  1233.13     0  02:03      0.0011        8.89       0.143
  WS02004406           JUNCTION      0.00  1233.66     0  02:03           0        8.87       0.244
  WS02004407           JUNCTION      0.00  1234.13     0  02:03           0        8.85       0.019
  WS02004409           JUNCTION      0.00  1225.00     0  02:04           0        8.85       0.040
  WS02004410           JUNCTION      0.00  1224.74     0  02:04           0        8.85       0.061
  WS02004411           JUNCTION      0.00  1225.35     0  02:04           0        8.84       0.074
  WS02004412           JUNCTION      0.00  1225.11     0  02:04           0        8.83       0.095
  WS02004413           JUNCTION      0.00  1224.68     0  02:04           0        8.83       0.167
  WS02006109           JUNCTION      1.23  1164.73     0  02:06      0.0354        8.76       0.114
  WS02006110           JUNCTION      0.00  1121.38     0  02:07           0        8.74       0.089
  WS02006111           JUNCTION      0.00  1121.17     0  02:07           0        8.73       0.004
  WS02006112           JUNCTION    122.83  1229.71     0  02:03       0.218        8.95       0.206
  WS02006113           JUNCTION      0.00  1121.53     0  02:07           0        8.74       0.026
  WS02006115           JUNCTION      0.00  1228.46     0  02:03           0        8.93       0.075
  WS02006116           JUNCTION      0.00  1227.73     0  02:03           0        8.93       0.057
  WS02006228           JUNCTION      0.00  1163.00     0  02:06           0        8.73       0.047
  WS02006229           JUNCTION      0.00  2038.10     0  02:06           0        9.69       0.076
  WS02006230           JUNCTION     10.28   888.59     0  02:06       0.296        5.35       0.163
  WS02006231           JUNCTION      0.00   565.22     0  05:15           0         4.8      -0.080
  WS02006232           JUNCTION      0.00   563.29     0  05:15           0         4.8       0.125
  WS02006234           JUNCTION      0.00   556.34     0  03:45           0        4.79      -0.175
  WS02006235           JUNCTION      0.00   548.80     0  03:45           0        4.85       0.167
  WS02006238           JUNCTION      0.00   437.26     0  03:46           0        4.58      -0.211
  WS02006239           JUNCTION      0.00   434.32     0  03:46           0        4.53      -0.243
  WS02006240           JUNCTION      0.00   429.74     0  03:46           0        4.51      -0.018
  WS02006242           JUNCTION      0.00   423.05     0  03:27           0         4.5       0.032
  WS02006243           JUNCTION      0.00   423.37     0  03:27           0         4.3      -0.236
  WS02006245           JUNCTION      0.00   423.68     0  03:27           0        4.31       0.313
  WS02006247           JUNCTION      0.00   438.37     0  01:42           0         4.3      -0.002
  WS02006248           JUNCTION      0.00   462.81     0  01:42           0         4.4      -0.079
  WS02006249           JUNCTION      0.00  1303.28     0  02:06           0        6.29       0.146
  WS02006251           JUNCTION      0.08  1301.93     0  02:06     0.00222        6.38      -0.001
  WS02006252           JUNCTION      0.00   400.00     0  00:00           0        4.67      -0.298
  WS02006253           JUNCTION     15.91  1089.08     0  02:06      0.0235        1.72       0.036
  WS02006256           JUNCTION      0.00   300.00     0  00:00           0       0.748      -3.023
  WS02006280           JUNCTION      0.00  2035.36     0  02:06           0        5.33       0.016
  WS02006284           JUNCTION      0.10  2033.35     0  02:06     0.00275        5.33      -0.002
  WS02006287           JUNCTION      0.00  2028.01     0  02:06           0        5.33       0.014
  WSF200               JUNCTION      0.00  1225.93     0  02:04           0        8.81       0.009
  YS02001580           JUNCTION      0.00   120.25     0  02:01           0     0.00438       0.268
  YS02001583           JUNCTION      0.00   196.06     0  02:02           0      0.0149      -7.700
  YS02001586           JUNCTION    265.27   266.10     0  02:05       0.737       0.749       0.221
  YS02001590           JUNCTION      0.00   266.08     0  02:05           0       0.735      -0.052
  YS02001593           JUNCTION      0.00   266.04     0  02:05           0       0.735       0.020
  YS02001596           JUNCTION      0.00   266.05     0  02:05           0       0.735       0.000
  YS02001600           JUNCTION      0.00   266.04     0  02:05           0       0.735       0.015
  YS02001601           JUNCTION    510.07   772.90     0  02:03        1.09        1.82       0.050
  YS02001602           JUNCTION      0.00   549.07     0  02:01           0        1.62       0.027
  YS02001605           JUNCTION      0.00   549.47     0  02:01           0        1.62       0.022
  YS02001607           JUNCTION      0.00   549.88     0  02:01           0        1.62       0.123
  YS02001610           JUNCTION      0.00   536.67     0  02:01           0        1.62       0.146
  YS02001613           JUNCTION      0.00   543.74     0  02:01           0        1.62       0.101
  YS02001616           JUNCTION      0.00   550.11     0  02:01           0        1.62       0.013
  YS02001619           JUNCTION    463.33   942.06     0  02:01        1.16        2.78       0.004
  YS02001622           JUNCTION      0.00   946.26     0  02:01           0        2.77      -0.001
  YS02001625           JUNCTION      0.00   915.58     0  02:02           0        2.77       0.328
  YS02001629           JUNCTION      0.00   915.69     0  02:02           0        2.77       0.008
  YS02001633           JUNCTION    375.87  1275.54     0  02:04       0.777        3.54       0.099
  YS02001641           JUNCTION      0.00  1277.04     0  02:03           0        3.54       0.082
  YS02001644           JUNCTION    336.63  1615.32     0  02:03       0.668         4.2       0.082
  YS02001647           JUNCTION      0.00  1615.66     0  02:03           0        4.19       0.008
  YS02001649           JUNCTION      0.00  2005.98     0  02:03           0        4.78       0.002
  YS02001652           JUNCTION      0.00   419.34     0  02:03           0       0.589      -0.206
  YS02001655           JUNCTION      0.15   336.77     0  02:03     0.00443        0.59       0.172
  YS02001658           JUNCTION      0.00   324.22     0  02:03           0       0.585      -0.014
  YS02001661           JUNCTION      0.00   324.46     0  02:03           0       0.586       0.052
  YS02001664           JUNCTION    324.57   324.57     0  02:03       0.586       0.586      -0.004
  YS02001745           JUNCTION    222.00   222.00     0  02:02       0.372       0.372       0.142
  YS02001748           JUNCTION      0.04   222.31     0  02:02      0.0013       0.373      -0.080
  YS02001751           JUNCTION      0.01   222.45     0  02:02    0.000317       0.374       0.321
  YS02001754           JUNCTION      0.26   252.43     0  02:05     0.00749        0.38      -0.383
  YS02001757           JUNCTION      0.00  2746.52     0  02:05           0        6.48       0.064
  YS02001759           JUNCTION    303.57   655.28     0  02:05       0.509        1.32      -0.018
  YS02001762           JUNCTION      0.00   422.29     0  02:06           0       0.808       0.010
  YS02001765           JUNCTION      0.00   424.82     0  02:06           0       0.808       0.005
  YS02001767           JUNCTION      0.54   411.31     0  02:06      0.0154       0.808       0.015
  YS02001770           JUNCTION    430.10   430.10     0  02:03       0.793       0.833      -0.004
  YS02001774           JUNCTION      0.00    98.40     0  02:07           0      0.0597       1.782
  YS02001779           JUNCTION      0.01    68.68     0  02:07    0.000144      0.0187      -0.015
  YS02001783           JUNCTION      0.00  1076.66     0  02:08           0        2.51       0.010
  YS02001784           JUNCTION      1.06  1077.91     0  02:08      0.0305        2.54       0.020
  YS02001786           JUNCTION      0.06  1077.92     0  02:08     0.00162        2.54       0.025
  YS02001788           JUNCTION      0.07  1078.01     0  02:08     0.00204        2.54       0.013
  YS02001790           JUNCTION      0.15  1081.86     0  02:07     0.00446        2.54       0.018
  YS02001791           JUNCTION      0.00  1182.69     0  02:09           0        2.54       0.000
  YS02001793           JUNCTION      0.00  1122.82     0  02:09           0        2.54       0.009
  YS02001882           JUNCTION      0.00    29.35     0  02:02           0      0.0123       4.968
  YS02001884           JUNCTION      0.00    72.81     0  02:02           0       0.048       5.348
  YS02001887           JUNCTION    345.24   345.24     0  02:02        0.55       0.583       0.775
  YS02001890           JUNCTION      0.00   337.49     0  02:03           0       0.542       0.927
  YS02001895           JUNCTION      0.00   341.24     0  02:03           0       0.537       0.269
  YS02001898           JUNCTION      0.00   345.18     0  02:03           0       0.536       0.082
  YS02001901           JUNCTION      0.00   348.32     0  02:03           0       0.538       0.596
  YS02001904           JUNCTION      0.00   350.07     0  02:03           0       0.542       0.541
  YS02001907           JUNCTION      0.00   757.17     0  02:10           0        1.77       1.027
  YS02001910           JUNCTION      0.00   579.49     0  02:11           0        1.23       0.576
  YS02001915           JUNCTION    369.89   578.14     0  02:11       0.752        1.24       0.133
  YS02001918           JUNCTION      0.00   279.36     0  02:10           0       0.489       0.045
  YS02001920           JUNCTION      2.87   255.22     0  02:09      0.0827       0.482       0.203
  YS02001923           JUNCTION      0.04   228.33     0  02:09     0.00109       0.398      -0.051
  YS02001926           JUNCTION      0.05   207.35     0  02:07      0.0015       0.397       0.144
  YS02001929           JUNCTION    174.99   174.99     0  02:05       0.396       0.396      -0.002
  YS02006553           JUNCTION      0.00   756.55     0  02:10           0        1.76       0.676
  YS02006556           JUNCTION      0.00   756.50     0  02:10           0        1.76       0.470
  YS02006558           JUNCTION    437.24  1093.81     0  02:06       0.796        2.54       0.140
  YS02006561           JUNCTION      0.00  1093.54     0  02:06           0        2.51      -0.001
  YS02163301           JUNCTION      0.00   900.14     0  02:03           0        2.77       0.056
  YS02163601           JUNCTION      0.11  1276.11     0  02:03     0.00317        3.54       0.139
  YS02164001           JUNCTION      0.00  1276.11     0  02:03           0        3.54       0.071
  YSB1154              JUNCTION    177.75   177.75     0  02:03       0.328       0.329       0.444
  YSB1171              JUNCTION      0.00   353.20     0  02:02           0       0.582       1.100
  YSB1174              JUNCTION    160.44   160.44     0  02:02       0.247       0.247       0.525
  YSB6556              JUNCTION      0.00   178.81     0  02:02           0       0.329       0.366
  CC-1                 OUTFALL       0.00   683.00     0  00:00           0         2.2       0.000
  CC-2                 OUTFALL       0.00   683.00     0  00:00           0       0.468       0.000
  JK-1                 OUTFALL       0.00  1000.00     0  00:00           0       0.949       0.000
  JK-2                 OUTFALL       0.00  1000.00     0  00:00           0       0.967       0.000
  WSC                  OUTFALL       0.00  1433.57     0  02:09           0        14.6       0.000
  CC-storage           STORAGE       0.00  2537.51     0  02:05           0        8.71      -0.335
  JK-storage           STORAGE       0.00  1117.63     0  02:07           0        2.69      -0.621
  XR-storage           STORAGE     200.00   200.00     0  00:00        5.76        6.36       0.001
  
  
  **********************
  Node Surcharge Summary
  **********************
  
  Surcharging occurs when water rises above the top of the highest conduit.
  ---------------------------------------------------------------------
                                               Max. Height   Min. Depth
                                   Hours       Above Crown    Below Rim
  Node                 Type      Surcharged         Meters       Meters
  ---------------------------------------------------------------------
  HS02004478           JUNCTION        0.15          0.565        0.375
  HS02004479           JUNCTION        0.26          0.893        0.157
  HS02004480           JUNCTION        0.30          0.944        0.156
  HS02004770           JUNCTION        0.22          0.720        0.000
  HS02004777           JUNCTION        0.22          0.780        0.000
  HS02004785           JUNCTION        0.17          0.790        0.000
  HS02004788           JUNCTION        0.16          0.720        0.000
  HS02004792           JUNCTION        0.26          0.900        0.000
  HS02004799           JUNCTION        0.36          1.060        0.000
  HS02004802           JUNCTION        0.30          0.893        0.317
  HS02004807           JUNCTION        0.28          0.883        0.337
  HS02004817           JUNCTION        0.74          1.222        0.518
  HS02004824           JUNCTION        0.17          0.867        0.443
  HS02004830           JUNCTION        0.14          1.014        0.316
  HS02004837           JUNCTION        0.07          0.882        0.458
  HS02004842           JUNCTION        0.23          1.000        0.520
  HS02004848           JUNCTION        0.04          0.717        0.653
  HS02004852           JUNCTION        0.07          1.116        0.304
  HS02004856           JUNCTION        0.06          0.654        0.646
  HS02004862           JUNCTION        0.10          1.300        0.000
  HS02004870           JUNCTION        0.12          1.400        0.000
  HS02004876           JUNCTION        0.20          1.560        0.000
  HS02004881           JUNCTION        0.18          1.236        0.214
  HS02004901           JUNCTION        0.22          0.720        0.000
  WS02004401           JUNCTION        1.20          0.767        0.893
  WS02004402           JUNCTION        1.22          0.720        1.020
  WS02004403           JUNCTION        1.22          0.650        1.380
  WS02004404           JUNCTION        1.41          0.652        2.128
  WS02004405           JUNCTION        1.37          0.586        2.214
  WS02004406           JUNCTION        1.34          0.468        1.982
  WS02004409           JUNCTION        0.54          0.302        2.058
  WS02004410           JUNCTION        0.48          0.225        2.315
  WS02004411           JUNCTION        0.45          0.151        2.379
  WS02004412           JUNCTION        0.38          0.066        2.244
  WS02004413           JUNCTION        0.82          0.121        2.079
  WS02006109           JUNCTION        2.40          1.820        0.000
  WS02006110           JUNCTION        1.70          1.431        0.419
  WS02006111           JUNCTION        0.75          0.796        1.074
  WS02006112           JUNCTION        1.95          1.210        0.470
  WS02006113           JUNCTION        0.81          0.958        0.972
  WS02006115           JUNCTION        1.09          0.805        1.445
  WS02006116           JUNCTION        1.14          0.762        1.528
  WS02006228           JUNCTION        2.39          2.170        0.030
  WS02006229           JUNCTION        0.47          1.001        0.069
  WS02006230           JUNCTION        1.49          1.570        0.000
  WS02006231           JUNCTION        1.71          1.479        0.051
  WS02006232           JUNCTION        2.34          1.480        0.000
  WS02006234           JUNCTION        1.97          1.240        0.000
  WS02006235           JUNCTION        2.12          1.290        0.000
  WS02006238           JUNCTION        2.18          1.310        0.120
  WS02006239           JUNCTION        2.09          1.141        0.149
  WS02006240           JUNCTION        2.11          0.981        0.409
  WS02006242           JUNCTION        2.36          0.820        0.000
  WS02006243           JUNCTION        2.11          0.770        0.000
  WS02006245           JUNCTION        2.10          0.850        0.000
  WS02006247           JUNCTION        2.14          0.760        0.000
  WS02006248           JUNCTION        2.09          0.380        0.000
  WS02006249           JUNCTION        2.12          0.390        0.000
  WS02006251           JUNCTION        1.80          1.180        0.000
  WS02006252           JUNCTION        2.90          1.100        0.000
  WS02006253           JUNCTION        1.86          2.480        0.000
  WS02006256           JUNCTION        7.47          2.050        0.000
  WS02006280           JUNCTION        0.37          0.648        0.132
  WS02006284           JUNCTION        0.31          0.603        0.197
  WS02006287           JUNCTION        0.24          0.649        0.241
  YS02001580           JUNCTION        0.12          0.450        0.000
  YS02001583           JUNCTION        0.14          0.500        0.000
  YS02001586           JUNCTION        0.32          0.510        0.000
  YS02001590           JUNCTION        0.38          0.750        0.000
  YS02001593           JUNCTION        0.39          0.737        0.103
  YS02001596           JUNCTION        0.47          0.970        0.100
  YS02001600           JUNCTION        0.59          1.190        0.000
  YS02001601           JUNCTION        0.93          1.440        0.000
  YS02001602           JUNCTION        0.81          1.270        0.000
  YS02001605           JUNCTION        0.76          1.180        0.000
  YS02001607           JUNCTION        0.34          0.644        0.036
  YS02001610           JUNCTION        0.36          0.680        0.000
  YS02001613           JUNCTION        0.33          0.673        0.027
  YS02001616           JUNCTION        0.30          0.610        0.000
  YS02001619           JUNCTION        0.28          0.595        0.015
  YS02001622           JUNCTION        0.28          0.574        0.046
  YS02001625           JUNCTION        0.44          0.780        0.000
  YS02001629           JUNCTION        0.22          0.470        0.000
  YS02001633           JUNCTION        0.46          0.779        0.281
  YS02001641           JUNCTION        0.39          0.450        0.650
  YS02001644           JUNCTION        0.35          0.379        0.541
  YS02001647           JUNCTION        0.05          0.066        0.834
  YS02001649           JUNCTION        0.20          0.147        0.903
  YS02001757           JUNCTION        0.24          0.147        1.063
  YS02001759           JUNCTION        0.09          0.065        1.145
  YS02001762           JUNCTION        0.01          0.031        1.119
  YS02001774           JUNCTION        0.01          0.028        1.022
  YS02001783           JUNCTION        0.23          0.309        1.291
  YS02001784           JUNCTION        0.20          0.225        1.265
  YS02001786           JUNCTION        0.05          0.016        1.414
  YS02001882           JUNCTION        0.17          0.358        0.472
  YS02001884           JUNCTION        0.18          0.395        0.475
  YS02001887           JUNCTION        0.22          0.481        0.469
  YS02001890           JUNCTION        0.24          0.510        0.250
  YS02001895           JUNCTION        0.16          0.309        0.441
  YS02001898           JUNCTION        0.15          0.277        0.463
  YS02001901           JUNCTION        0.21          0.424        0.446
  YS02001904           JUNCTION        0.20          0.399        0.451
  YS02001907           JUNCTION        0.41          0.726        0.224
  YS02001910           JUNCTION        0.26          0.541        0.559
  YS02001915           JUNCTION        0.17          0.346        0.654
  YS02001920           JUNCTION        0.06          0.064        1.076
  YS02006553           JUNCTION        0.42          0.725        0.465
  YS02006556           JUNCTION        0.34          0.626        0.724
  YS02006558           JUNCTION        0.33          0.602        0.798
  YS02163301           JUNCTION        0.44          0.843        0.187
  YS02163601           JUNCTION        0.48          0.670        0.410
  YS02164001           JUNCTION        0.39          0.492        0.608
  YSB1154              JUNCTION        0.44          1.212        0.188
  YSB1171              JUNCTION        0.45          1.100        0.000
  YSB1174              JUNCTION        0.39          1.097        0.153
  YSB6556              JUNCTION        0.34          1.072        0.028
  
  
  *********************
  Node Flooding Summary
  *********************
  
  Flooding refers to all water that overflows a node, whether it ponds or not.
  --------------------------------------------------------------------------
                                                             Total   Maximum
                                 Maximum   Time of Max       Flood    Ponded
                        Hours       Rate    Occurrence      Volume     Depth
  Node                 Flooded       LPS   days hr:min    10^6 ltr    Meters
  --------------------------------------------------------------------------
  HS02004770              0.04    138.17      0  02:02       0.007     0.000
  HS02004777              0.01     45.97      0  02:01       0.000     0.000
  HS02004785              0.01     75.10      0  02:01       0.000     0.000
  HS02004788              0.01    287.71      0  02:01       0.001     0.000
  HS02004792              0.01     49.95      0  02:06       0.001     0.000
  HS02004799              0.01      6.09      0  02:06       0.000     0.000
  HS02004862              0.01     71.15      0  02:05       0.000     0.000
  HS02004870              0.01    174.64      0  02:05       0.000     0.000
  HS02004876              0.01     23.97      0  02:05       0.000     0.000
  HS02004901              0.10    164.20      0  02:03       0.031     0.000
  WS02006109              0.04     56.51      0  02:06       0.002     0.000
  WS02006230              0.32    435.47      0  02:06       0.267     0.000
  WS02006232              0.07      0.60      0  02:12       0.000     0.000
  WS02006234              0.36    128.36      0  02:03       0.108     0.000
  WS02006235              0.01      7.49      0  02:26       0.000     0.000
  WS02006242              0.45    137.31      0  02:12       0.183     0.000
  WS02006243              0.01     46.93      0  01:55       0.000     0.000
  WS02006245              0.01     33.13      0  01:55       0.000     0.000
  WS02006247              0.01     85.63      0  01:55       0.000     0.000
  WS02006248              0.67    338.81      0  02:20       0.609     0.000
  WS02006249              1.55   1256.49      0  02:06       2.398     0.000
  WS02006251              0.01      5.22      0  02:05       0.000     0.000
  WS02006252              0.12    245.63      0  00:00       0.030     0.000
  WS02006253              0.01    411.23      0  01:56       0.000     0.000
  WS02006256              0.69    293.19      0  00:00       0.372     0.000
  YS02001580              0.01     92.97      0  02:02       0.000     0.000
  YS02001583              0.01     28.36      0  02:02       0.000     0.000
  YS02001586              0.01     85.64      0  02:02       0.001     0.000
  YS02001590              0.01    101.08      0  02:00       0.000     0.000
  YS02001600              0.01      3.79      0  02:02       0.000     0.000
  YS02001601              0.25    344.65      0  02:04       0.196     0.000
  YS02001602              0.01     23.93      0  02:02       0.000     0.000
  YS02001610              0.01     24.42      0  02:02       0.000     0.000
  YS02001616              0.01      5.43      0  02:02       0.000     0.000
  YS02001625              0.01     34.19      0  02:02       0.000     0.000
  YS02001629              0.01    121.42      0  02:02       0.000     0.000
  YSB1171                 0.01     30.77      0  02:06       0.000     0.000
  
  
  **********************
  Storage Volume Summary
  **********************
  
  --------------------------------------------------------------------------------------------------
                         Average     Avg  Evap Exfil       Maximum     Max    Time of Max    Maximum
                          Volume    Pcnt  Pcnt  Pcnt        Volume    Pcnt     Occurrence    Outflow
  Storage Unit           1000 m3    Full  Loss  Loss       1000 m3    Full    days hr:min        LPS
  --------------------------------------------------------------------------------------------------
  CC-storage               2.173      34     0     0         3.903      61       0  02:23    1783.53
  JK-storage               0.066      23     0     0         0.211      72       0  02:27    2300.00
  XR-storage               0.952      66     0     0         1.111      77       0  08:00     380.00
  
  
  ***********************
  Outfall Loading Summary
  ***********************
  
  -----------------------------------------------------------
                         Flow       Avg       Max       Total
                         Freq      Flow      Flow      Volume
  Outfall Node           Pcnt       LPS       LPS    10^6 ltr
  -----------------------------------------------------------
  CC-1                  12.53    683.00    683.00       2.201
  CC-2                   2.15    683.00    683.00       0.468
  JK-1                   4.24   1000.00   1000.00       0.949
  JK-2                   4.11   1000.00   1000.00       0.967
  WSC                   99.96    586.62   1433.57      14.610
  -----------------------------------------------------------
  System                24.60   3952.62   4112.77      19.195
  
  
  ********************
  Link Flow Summary
  ********************
  
  -----------------------------------------------------------------------------
                                 Maximum  Time of Max   Maximum    Max/    Max/
                                  |Flow|   Occurrence   |Veloc|    Full    Full
  Link                 Type          LPS  days hr:min     m/sec    Flow   Depth
  -----------------------------------------------------------------------------
  1                    CONDUIT   1433.57     0  02:09      3.65    0.50    0.50
  HS02004478WS02006287 CONDUIT   2028.01     0  02:06      2.56    0.57    1.00
  HS02004479HS02004480 CONDUIT    375.92     0  02:02      0.54    0.36    1.00
  HS02004480HS02004478 CONDUIT   2068.67     0  02:02      2.96    8.71    1.00
  HS02004770HS02004777 CONDUIT    748.83     0  02:01      1.07    1.37    1.00
  HS02004777HS02004785 CONDUIT    761.37     0  02:01      1.15    0.94    1.00
  HS02004785HS02004788 CONDUIT    667.79     0  02:01      1.34    5.03    1.00
  HS02004788HS02004792 CONDUIT    852.49     0  02:06      1.47    0.56    1.00
  HS02004792HS02004799 CONDUIT   1571.84     0  02:02      2.25    0.96    1.00
  HS02004799HS02004480 CONDUIT   1725.71     0  02:02      2.47    2.18    1.00
  HS02004802HS02004478 CONDUIT    360.47     0  02:19      0.71    0.32    1.00
  HS02004807HS02004802 CONDUIT    343.32     0  02:19      0.62    0.66    1.00
  HS02004817HS02004807 CONDUIT    430.21     0  02:02      0.61    0.25    1.00
  HS02004817HS02004824 CONDUIT    431.74     0  02:02      0.62    0.19    1.00
  HS02004824HS02004830 CONDUIT    668.52     0  02:02      0.98    0.87    1.00
  HS02004830HS02004837 CONDUIT    626.35     0  02:02      0.98    0.62    1.00
  HS02004837HS02004842 CONDUIT    825.53     0  02:03      1.18    0.49    1.00
  HS02004842HS02004848 CONDUIT    825.92     0  02:03      1.32    0.48    1.00
  HS02004848HS02004852 CONDUIT    962.28     0  02:03      1.58    1.08    1.00
  HS02004852HS02004856 CONDUIT    916.93     0  02:03      1.45    1.05    1.00
  HS02004856HS02004862 CONDUIT    982.72     0  02:04      1.68    0.98    1.00
  HS02004862HS02004870 CONDUIT   1080.55     0  02:04      1.92    1.17    1.00
  HS02004870HS02004876 CONDUIT   1131.82     0  02:04      1.88    0.75    1.00
  HS02004876HS02004881 CONDUIT   1172.31     0  02:04      2.28   12.47    1.00
  HS02004881HS02006253 CONDUIT   1077.97     0  02:06      2.77    0.21    1.00
  HS02004901HS02004770 CONDUIT    152.05     0  02:01      0.22    0.57    1.00
  WS02001211WS02001212 CONDUIT    212.80     0  02:34      0.54    0.16    0.67
  WS02001212WS02001213 CONDUIT    215.66     0  02:34      1.04    0.33    0.54
  WS02001213WS02003059 CONDUIT    220.45     0  02:28      0.47    0.36    0.87
  WS02003059WS02003060 CONDUIT    225.99     0  02:27      0.66    0.15    0.79
  WS02003060WS02003069 CONDUIT   1432.60     0  02:09      2.06    0.56    0.59
  WS02003066WSF200     CONDUIT   1225.93     0  02:04      3.32    0.21    0.37
  WS02003067WS02003066 CONDUIT   1225.95     0  02:04      1.94    0.39    0.55
  WS02003069WS02003072 CONDUIT   1431.47     0  02:10      1.86    0.69    0.64
  WS02003072WS02003073 CONDUIT   1431.00     0  02:10      2.01    3.09    0.60
  WS02004138WS02004139 CONDUIT    190.00     0  00:32      2.14    0.04    0.41
  WS02004139WS02001211 CONDUIT    204.79     0  02:02      0.55    0.26    0.59
  WS02004401WS02004402 CONDUIT   1229.19     0  02:03      1.57    1.48    1.00
  WS02004402WS02004403 CONDUIT   1229.96     0  02:03      1.57    1.77    1.00
  WS02004403WS02004404 CONDUIT   1231.39     0  02:03      1.57    0.89    1.00
  WS02004404WS02004405 CONDUIT   1233.09     0  02:03      1.57   12.08    1.00
  WS02004405WS02004406 CONDUIT   1233.66     0  02:03      1.57    2.43    1.00
  WS02004406WS02004407 CONDUIT   1234.13     0  02:03      1.83    0.55    0.90
  WS02004407WS02004409 CONDUIT   1225.00     0  02:04      1.88    0.43    0.90
  WS02004409WS02004410 CONDUIT   1224.74     0  02:04      1.56    1.58    1.00
  WS02004410WS02004411 CONDUIT   1225.35     0  02:04      1.56    1.67    1.00
  WS02004411WS02004412 CONDUIT   1225.11     0  02:04      1.56    1.74    1.00
  WS02004412WS02004413 CONDUIT   1224.68     0  02:04      1.56    0.82    1.00
  WS02004413WS02003067 CONDUIT   1224.54     0  02:04      1.92    0.52    0.76
  WS02006109WS02006110 CONDUIT   1121.38     0  02:07      2.23    2.16    1.00
  WS02006110WS02006113 CONDUIT   1121.53     0  02:07      2.23    1.02    1.00
  WS02006111WS02006112 CONDUIT   1121.24     0  02:07      2.23    0.53    1.00
  WS02006112WS02006115 CONDUIT   1228.46     0  02:03      1.56    0.73    1.00
  WS02006113WS02006111 CONDUIT   1121.17     0  02:07      2.63    1.34    1.00
  WS02006115WS02006116 CONDUIT   1227.73     0  02:03      1.56    1.58    1.00
  WS02006116WS02004401 CONDUIT   1228.56     0  02:03      1.56    1.69    1.00
  WS02006228WS02006109 CONDUIT   1163.50     0  02:06      2.31    5.08    1.00
  WS02006229WS02006228 CONDUIT   1163.00     0  02:06      2.31    3.85    1.00
  WS02006230WS02006229 CONDUIT    878.31     0  02:06      2.28   19.55    1.00
  WS02006231WS02006230 CONDUIT    561.56     0  03:45      1.48    8.52    1.00
  WS02006232WS02006231 CONDUIT    565.22     0  05:15      1.49    1.18    1.00
  WS02006234WS02006232 CONDUIT    563.29     0  05:15      1.46    1.14    1.00
  WS02006235WS02006234 CONDUIT    556.34     0  03:45      1.45    5.87    1.00
  WS02006238WS02006235 CONDUIT    424.06     0  03:36      1.45    0.95    1.00
  WS02006239WS02006238 CONDUIT    437.26     0  03:46      1.14    1.40    1.00
  WS02006240WS02006239 CONDUIT    434.32     0  03:46      1.29    1.37    1.00
  WS02006242WS02006240 CONDUIT    429.74     0  03:46      1.17    1.71    1.00
  WS02006243WS02006242 CONDUIT    423.05     0  03:27      1.38    0.90    1.00
  WS02006245WS02006243 CONDUIT    423.37     0  03:27      1.39    1.25    1.00
  WS02006247WS02006245 CONDUIT    423.68     0  03:27      1.42    3.36    1.00
  WS02006248WS02006247 CONDUIT    438.37     0  01:42      1.46    0.95    1.00
  WS02006249WS02006248 CONDUIT    462.81     0  01:42      1.43    2.54    1.00
  WS02006251WS02006249 CONDUIT   1303.28     0  02:06      3.39    3.76    1.00
  WS02006252WS02006251 CONDUIT    409.57     0  02:21     26.95    1.50    1.00
  WS02006253WS02006251 CONDUIT   1092.32     0  02:06      2.84    3.28    1.00
  WS02006256WS02006235 CONDUIT    288.93     0  00:00      4.23    3.06    1.00
  WS02006280WS02006229 CONDUIT   2038.10     0  02:06      4.49    0.43    1.00
  WS02006284WS02006280 CONDUIT   2035.36     0  02:06      3.02    0.85    1.00
  WS02006287WS02006284 CONDUIT   2033.26     0  02:06      2.78    0.94    1.00
  WSF200WS02003060     CONDUIT   1226.90     0  02:05      2.41    0.27    0.49
  YS02001580YS02001583 CONDUIT    120.25     0  02:01      0.78    0.47    1.00
  YS02001583YS02001586 CONDUIT    168.59     0  02:01      0.75    0.26    1.00
  YS02001586YS02001590 CONDUIT    266.08     0  02:05      1.27    0.47    1.00
  YS02001590YS02001593 CONDUIT    266.04     0  02:05      1.03    1.67    1.00
  YS02001593YS02001596 CONDUIT    266.05     0  02:05      1.69    0.42    1.00
  YS02001596YS02001600 CONDUIT    266.04     0  02:05      1.18    0.52    1.00
  YS02001600YS02001601 CONDUIT    266.08     0  02:05      0.94    0.46    1.00
  YS02001601YS02001602 CONDUIT    549.07     0  02:01      1.94    1.98    1.00
  YS02001602YS02001605 CONDUIT    549.47     0  02:01      1.94   11.63    1.00
  YS02001605YS02001607 CONDUIT    549.88     0  02:01      1.94    3.02    1.00
  YS02001607YS02001610 CONDUIT    536.67     0  02:01      0.69    0.51    1.00
  YS02001610YS02001613 CONDUIT    543.74     0  02:01      0.69    0.63    1.00
  YS02001613YS02001616 CONDUIT    550.11     0  02:01      0.70    0.47    1.00
  YS02001616YS02001619 CONDUIT    526.13     0  02:01      0.67    0.91    1.00
  YS02001619YS02001622 CONDUIT    946.26     0  02:01      1.24    1.39    1.00
  YS02001622YS02001625 CONDUIT    915.58     0  02:02      1.17    0.49    1.00
  YS02001625YS02001629 CONDUIT    915.69     0  02:02      1.17    0.44    1.00
  YS02001629YS02163301 CONDUIT    900.14     0  02:03      1.15    1.11    1.00
  YS02001633YS02163601 CONDUIT   1276.00     0  02:03      1.62    1.34    1.00
  YS02001641YS02001644 CONDUIT   1279.03     0  02:03      1.63    4.13    1.00
  YS02001644YS02001647 CONDUIT   1615.66     0  02:03      2.19    0.95    1.00
  YS02001647YS02001649 CONDUIT   1635.74     0  02:02      2.33    0.86    1.00
  YS02001649YS02001757 CONDUIT   1959.37     0  02:03      2.54    1.19    1.00
  YS02001652YS02001649 CONDUIT    423.10     0  02:03      0.76    0.21    0.97
  YS02001655YS02001652 CONDUIT    419.34     0  02:03      1.41    0.20    0.78
  YS02001658YS02001655 CONDUIT    336.62     0  02:03      1.98    0.14    0.51
  YS02001661YS02001658 CONDUIT    324.22     0  02:03      2.16    0.13    0.28
  YS02001664YS02001661 CONDUIT    324.46     0  02:03      1.96    0.10    0.26
  YS02001745YS02001748 CONDUIT    222.27     0  02:02      2.02    0.09    0.20
  YS02001748YS02001751 CONDUIT    222.44     0  02:02      1.70    0.11    0.41
  YS02001751YS02001754 CONDUIT    252.17     0  02:05      1.55    0.12    0.63
  YS02001754YS02001757 CONDUIT    291.47     0  02:05      0.52    0.12    0.90
  YS02001757CaochengTiaoxuchi CONDUIT   2537.51     0  02:05      3.35    1.10    1.00
  YS02001759YS02001757 CONDUIT    640.47     0  02:05      0.89    0.46    1.00
  YS02001762YS02001759 CONDUIT    384.76     0  02:05      0.59    0.44    1.00
  YS02001765YS02001762 CONDUIT    422.29     0  02:06      0.72    0.40    0.99
  YS02001767YS02001765 CONDUIT    424.82     0  02:06      0.82    0.53    0.94
  YS02001770YS02001767 CONDUIT    410.78     0  02:06      0.82    1.63    0.93
  YS02001774YS02001770 CONDUIT     97.27     0  02:03      0.17    0.06    0.95
  YS02001779YS02001774 CONDUIT     68.68     0  02:07      0.10    0.03    0.87
  YS02001783YS02001784 CONDUIT   1076.85     0  02:08      2.14    1.48    1.00
  YS02001784YS02001785 CONDUIT   1077.86     0  02:08      2.15    2.51    1.00
  YS02001786YS02001788 CONDUIT   1077.94     0  02:08      2.35    2.08    0.87
  YS02001788YS02001790 CONDUIT   1081.70     0  02:07      2.60    0.80    0.79
  YS02001790YS02001791 CONDUIT   1182.69     0  02:09      3.32    1.29    0.67
  YS02001791YS02001793 CONDUIT   1122.82     0  02:09      6.61    0.48    0.39
  YS02001793JiankangQianchi CONDUIT   1117.63     0  02:07      2.27    0.09    0.62
  YS02001882YS02001884 CONDUIT     29.35     0  02:02      0.09    0.03    1.00
  YS02001884YS02001887 CONDUIT     72.81     0  02:02      0.09    0.10    1.00
  YS02001887YS02001890 CONDUIT    337.49     0  02:03      0.43    0.58    1.00
  YS02001890YS02001895 CONDUIT    341.24     0  02:03      0.43    0.16    1.00
  YS02001895YS02001898 CONDUIT    345.18     0  02:03      0.44    0.60    1.00
  YS02001898YS02001901 CONDUIT    348.32     0  02:03      0.44    0.22    1.00
  YS02001901YS02001904 CONDUIT    350.07     0  02:03      0.45    0.54    1.00
  YS02001904YS02001907 CONDUIT    353.10     0  02:04      0.45    0.12    1.00
  YS02001907YS02006553 CONDUIT    756.55     0  02:10      0.84    0.89    1.00
  YS02001910YS02001907 CONDUIT    579.18     0  02:11      0.74    0.33    1.00
  YS02001915YS02001910 CONDUIT    579.49     0  02:11      0.74    0.29    1.00
  YS02001918YS02001915 CONDUIT    308.64     0  02:12      0.44    0.17    1.00
  YS02001920YS02001918 CONDUIT    279.36     0  02:10      0.63    0.27    1.00
  YS02001923YS02001920 CONDUIT    252.35     0  02:09      0.73    0.11    0.91
  YS02001926YS02001923 CONDUIT    228.30     0  02:09      0.94    0.33    0.61
  YS02001929YS02001926 CONDUIT    207.30     0  02:07      1.05    0.10    0.50
  YS02006553YS02006556 CONDUIT    756.50     0  02:10      0.96    0.65    1.00
  YS02006556YS02006558 CONDUIT    757.55     0  02:10      0.96    0.60    1.00
  YS02006558YS02006561 CONDUIT   1093.54     0  02:06      3.87    2.42    1.00
  YS02006561YS02001783 CONDUIT   1076.66     0  02:08      2.27    0.56    0.93
  YS02163301YS02001633 CONDUIT    901.86     0  02:02      1.15    0.85    1.00
  YS02163601YS02164001 CONDUIT   1276.11     0  02:03      1.62    1.13    1.00
  YS02164001YS02001641 CONDUIT   1277.04     0  02:03      1.63    1.74    1.00
  YSB1154YSB6556       CONDUIT    178.81     0  02:02      0.46    0.32    1.00
  YSB1171HS02004479    CONDUIT    363.73     0  02:02      0.72    0.24    1.00
  YSB1174YSB1171       CONDUIT    163.51     0  02:02      0.42    0.25    1.00
  YSB6556YSB1171       CONDUIT    189.69     0  02:02      0.49    0.20    1.00
  CC-R1                PUMP       683.00     0  00:00              1.00
  CC-R2                PUMP       683.00     0  00:00              1.00
  CC-S1                PUMP       200.00     0  00:00              1.00
  CC-S2                PUMP       200.00     0  00:00              1.00
  JK-R1                PUMP      1000.00     0  00:00              1.00
  JK-R2                PUMP      1000.00     0  00:00              1.00
  JK-S                 PUMP       300.00     0  00:00              1.00
  XR-1                 PUMP        95.00     0  00:00              1.00
  XR-2                 PUMP        95.00     0  00:00              1.00
  XR-3                 PUMP        95.00     0  00:00              1.00
  XR-4                 PUMP        95.00     0  00:00              1.00
  
  
  ***************************
  Flow Classification Summary
  ***************************
  
  -------------------------------------------------------------------------------------
                      Adjusted    ---------- Fraction of Time in Flow Class ---------- 
                       /Actual         Up    Down  Sub   Sup   Up    Down  Norm  Inlet 
  Conduit               Length    Dry  Dry   Dry   Crit  Crit  Crit  Crit  Ltd   Ctrl  
  -------------------------------------------------------------------------------------
  1                       1.00   0.00  0.00  0.00  0.00  1.00  0.00  0.00  0.45  0.00
  HS02004478WS02006287    1.00   0.13  0.00  0.00  0.66  0.21  0.00  0.00  0.63  0.00
  HS02004479HS02004480    1.00   0.03  0.00  0.00  0.97  0.00  0.00  0.00  0.12  0.00
  HS02004480HS02004478    1.00   0.11  0.00  0.00  0.61  0.00  0.00  0.28  0.00  0.00
  HS02004770HS02004777    1.00   0.00  0.11  0.00  0.89  0.00  0.00  0.00  0.03  0.00
  HS02004777HS02004785    1.00   0.00  0.00  0.00  1.00  0.00  0.00  0.00  0.14  0.00
  HS02004785HS02004788    1.00   0.00  0.00  0.00  1.00  0.00  0.00  0.00  0.00  0.00
  HS02004788HS02004792    1.00   0.00  0.00  0.00  0.99  0.01  0.00  0.00  0.95  0.00
  HS02004792HS02004799    1.00   0.00  0.00  0.00  0.99  0.01  0.00  0.00  0.92  0.00
  HS02004799HS02004480    1.00   0.00  0.03  0.00  0.88  0.00  0.10  0.00  0.00  0.00
  HS02004802HS02004478    1.00   0.11  0.00  0.00  0.88  0.00  0.00  0.00  0.03  0.00
  HS02004807HS02004802    1.00   0.11  0.00  0.00  0.88  0.00  0.00  0.01  0.00  0.00
  HS02004817HS02004807    1.00   0.00  0.11  0.00  0.89  0.00  0.00  0.00  0.01  0.00
  HS02004817HS02004824    1.00   0.00  0.00  0.00  1.00  0.00  0.00  0.00  0.88  0.00
  HS02004824HS02004830    1.00   0.00  0.00  0.00  1.00  0.00  0.00  0.00  0.01  0.00
  HS02004830HS02004837    1.00   0.00  0.00  0.00  1.00  0.00  0.00  0.00  0.93  0.00
  HS02004837HS02004842    1.00   0.00  0.00  0.00  1.00  0.00  0.00  0.00  0.11  0.00
  HS02004842HS02004848    1.00   0.00  0.11  0.00  0.89  0.00  0.00  0.00  0.60  0.00
  HS02004848HS02004852    1.00   0.11  0.00  0.00  0.89  0.00  0.00  0.00  0.72  0.00
  HS02004852HS02004856    1.00   0.11  0.01  0.00  0.88  0.00  0.00  0.00  0.73  0.00
  HS02004856HS02004862    1.00   0.00  0.13  0.00  0.87  0.00  0.00  0.00  0.77  0.00
  HS02004862HS02004870    1.00   0.00  0.00  0.00  1.00  0.00  0.00  0.00  0.04  0.00
  HS02004870HS02004876    1.00   0.00  0.00  0.00  0.99  0.01  0.00  0.00  0.91  0.00
  HS02004876HS02004881    1.00   0.01  0.00  0.00  0.82  0.16  0.00  0.00  0.00  0.00
  HS02004881HS02006253    1.00   0.01  0.05  0.00  0.65  0.01  0.00  0.27  0.40  0.00
  HS02004901HS02004770    1.00   0.11  0.00  0.00  0.89  0.00  0.00  0.00  0.00  0.00
  WS02001211WS02001212    1.00   0.00  0.02  0.00  0.98  0.00  0.00  0.00  0.00  0.00
  WS02001212WS02001213    1.00   0.02  0.00  0.00  0.65  0.00  0.33  0.00  0.00  0.00
  WS02001213WS02003059    1.00   0.00  0.00  0.00  1.00  0.00  0.00  0.00  0.00  0.00
  WS02003059WS02003060    1.00   0.00  0.00  0.00  1.00  0.00  0.00  0.00  0.03  0.00
  WS02003060WS02003069    1.00   0.00  0.00  0.00  0.96  0.04  0.00  0.00  0.43  0.00
  WS02003066WSF200        1.00   0.08  0.00  0.00  0.00  0.92  0.00  0.00  0.68  0.00
  WS02003067WS02003066    1.00   0.07  0.00  0.00  0.92  0.00  0.00  0.00  0.00  0.00
  WS02003069WS02003072    1.00   0.00  0.00  0.00  1.00  0.00  0.00  0.00  0.48  0.00
  WS02003072WS02003073    1.00   0.00  0.00  0.00  0.00  0.00  0.00  1.00  0.00  0.00
  WS02004138WS02004139    1.00   0.00  0.00  0.00  0.98  0.00  0.00  0.01  0.98  0.00
  WS02004139WS02001211    1.00   0.00  0.00  0.00  1.00  0.00  0.00  0.00  0.00  0.00
  WS02004401WS02004402    1.00   0.02  0.00  0.00  0.98  0.00  0.00  0.00  0.00  0.00
  WS02004402WS02004403    1.00   0.02  0.00  0.00  0.98  0.00  0.00  0.00  0.00  0.00
  WS02004403WS02004404    1.00   0.00  0.02  0.00  0.98  0.00  0.00  0.00  0.00  0.00
  WS02004404WS02004405    1.00   0.00  0.00  0.00  1.00  0.00  0.00  0.00  0.00  0.00
  WS02004405WS02004406    1.00   0.00  0.00  0.00  1.00  0.00  0.00  0.00  0.00  0.00
  WS02004406WS02004407    1.00   0.00  0.04  0.00  0.96  0.00  0.00  0.00  0.00  0.00
  WS02004407WS02004409    1.00   0.04  0.00  0.00  0.93  0.03  0.00  0.00  0.88  0.00
  WS02004409WS02004410    1.00   0.04  0.00  0.00  0.96  0.00  0.00  0.00  0.00  0.00
  WS02004410WS02004411    1.00   0.04  0.00  0.00  0.96  0.00  0.00  0.00  0.00  0.00
  WS02004411WS02004412    1.00   0.04  0.00  0.00  0.95  0.00  0.00  0.00  0.00  0.00
  WS02004412WS02004413    1.00   0.05  0.00  0.00  0.94  0.01  0.00  0.00  0.00  0.00
  WS02004413WS02003067    1.00   0.05  0.02  0.00  0.00  0.00  0.93  0.00  0.00  0.00
  WS02006109WS02006110    1.00   0.00  0.01  0.00  0.99  0.00  0.01  0.00  0.00  0.00
  WS02006110WS02006113    1.00   0.01  0.01  0.00  0.99  0.00  0.00  0.00  0.00  0.00
  WS02006111WS02006112    1.00   0.01  0.00  0.00  0.98  0.00  0.00  0.00  0.81  0.00
  WS02006112WS02006115    1.00   0.01  0.00  0.00  0.98  0.00  0.00  0.00  0.00  0.00
  WS02006113WS02006111    1.00   0.01  0.00  0.00  0.18  0.81  0.00  0.00  0.13  0.00
  WS02006115WS02006116    1.00   0.02  0.00  0.00  0.98  0.00  0.00  0.01  0.00  0.00
  WS02006116WS02004401    1.00   0.02  0.00  0.00  0.98  0.00  0.00  0.00  0.00  0.00
  WS02006228WS02006109    1.00   0.00  0.00  0.00  1.00  0.00  0.00  0.00  0.00  0.00
  WS02006229WS02006228    1.00   0.00  0.00  0.00  0.99  0.00  0.00  0.00  0.00  0.00
  WS02006230WS02006229    1.00   0.00  0.00  0.00  0.99  0.00  0.00  0.01  0.03  0.00
  WS02006231WS02006230    1.00   0.00  0.00  0.00  0.59  0.00  0.40  0.00  0.00  0.00
  WS02006232WS02006231    1.00   0.00  0.00  0.00  1.00  0.00  0.00  0.00  0.00  0.00
  WS02006234WS02006232    1.00   0.00  0.00  0.00  1.00  0.00  0.00  0.00  0.02  0.00
  WS02006235WS02006234    1.00   0.00  0.00  0.00  0.96  0.00  0.04  0.00  0.00  0.00
  WS02006238WS02006235    1.00   0.00  0.00  0.00  1.00  0.00  0.00  0.00  0.00  0.00
  WS02006239WS02006238    1.00   0.00  0.00  0.00  1.00  0.00  0.00  0.00  0.10  0.00
  WS02006240WS02006239    1.00   0.00  0.00  0.00  0.85  0.00  0.00  0.15  0.02  0.00
  WS02006242WS02006240    1.00   0.00  0.00  0.00  0.99  0.00  0.00  0.00  0.00  0.00
  WS02006243WS02006242    1.00   0.00  0.00  0.00  1.00  0.00  0.00  0.00  0.45  0.00
  WS02006245WS02006243    1.00   0.00  0.00  0.00  0.91  0.00  0.00  0.08  0.01  0.00
  WS02006247WS02006245    1.00   0.00  0.00  0.00  0.99  0.00  0.00  0.01  0.00  0.00
  WS02006248WS02006247    1.00   0.00  0.00  0.00  1.00  0.00  0.00  0.00  0.44  0.00
  WS02006249WS02006248    1.00   0.00  0.00  0.00  0.78  0.00  0.22  0.00  0.00  0.00
  WS02006251WS02006249    1.00   0.00  0.00  0.00  1.00  0.00  0.00  0.00  0.43  0.00
  WS02006252WS02006251    1.00   0.00  0.25  0.00  0.27  0.00  0.49  0.00  0.00  0.00
  WS02006253WS02006251    1.00   0.00  0.00  0.00  1.00  0.00  0.00  0.00  0.01  0.00
  WS02006256WS02006235    1.00   0.00  0.00  0.00  0.99  0.01  0.00  0.00  0.00  0.00
  WS02006280WS02006229    1.00   0.12  0.00  0.00  0.11  0.05  0.00  0.73  0.02  0.00
  WS02006284WS02006280    1.00   0.12  0.00  0.00  0.07  0.01  0.00  0.81  0.00  0.00
  WS02006287WS02006284    1.00   0.10  0.02  0.00  0.55  0.33  0.00  0.00  0.67  0.00
  WSF200WS02003060        1.00   0.00  0.08  0.00  0.46  0.47  0.00  0.00  0.48  0.00
  YS02001580YS02001583    1.00   0.21  0.63  0.00  0.17  0.00  0.00  0.00  0.70  0.00
  YS02001583YS02001586    1.00   0.26  0.50  0.00  0.23  0.00  0.00  0.00  0.70  0.00
  YS02001586YS02001590    1.00   0.11  0.00  0.00  0.47  0.07  0.00  0.35  0.36  0.00
  YS02001590YS02001593    1.00   0.11  0.00  0.00  0.08  0.00  0.81  0.00  0.00  0.00
  YS02001593YS02001596    1.00   0.12  0.00  0.00  0.10  0.01  0.00  0.78  0.02  0.00
  YS02001596YS02001600    1.00   0.12  0.00  0.00  0.18  0.02  0.00  0.68  0.06  0.00
  YS02001600YS02001601    1.00   0.11  0.00  0.00  0.88  0.00  0.00  0.00  0.65  0.00
  YS02001601YS02001602    1.00   0.11  0.00  0.00  0.88  0.00  0.00  0.00  0.00  0.00
  YS02001602YS02001605    1.00   0.12  0.00  0.00  0.88  0.00  0.00  0.00  0.00  0.00
  YS02001605YS02001607    1.00   0.12  0.00  0.00  0.88  0.00  0.00  0.00  0.00  0.00
  YS02001607YS02001610    1.00   0.11  0.00  0.00  0.88  0.00  0.00  0.00  0.02  0.00
  YS02001610YS02001613    1.00   0.11  0.00  0.00  0.89  0.00  0.00  0.00  0.01  0.00
  YS02001613YS02001616    1.00   0.11  0.00  0.00  0.89  0.00  0.00  0.00  0.01  0.00
  YS02001616YS02001619    1.00   0.11  0.00  0.00  0.89  0.00  0.00  0.00  0.00  0.00
  YS02001619YS02001622    1.00   0.11  0.00  0.00  0.89  0.00  0.00  0.00  0.31  0.00
  YS02001622YS02001625    1.00   0.11  0.00  0.00  0.89  0.00  0.00  0.00  0.06  0.00
  YS02001625YS02001629    1.00   0.11  0.03  0.00  0.12  0.00  0.74  0.00  0.00  0.00
  YS02001629YS02163301    1.00   0.13  0.00  0.00  0.87  0.00  0.00  0.00  0.00  0.00
  YS02001633YS02163601    1.00   0.00  0.00  0.00  1.00  0.00  0.00  0.00  0.16  0.00
  YS02001641YS02001644    1.00   0.00  0.00  0.00  1.00  0.00  0.00  0.00  0.00  0.00
  YS02001644YS02001647    1.00   0.00  0.14  0.00  0.86  0.00  0.00  0.00  0.00  0.00
  YS02001647YS02001649    1.00   0.00  0.14  0.00  0.42  0.44  0.00  0.00  0.58  0.00
  YS02001649YS02001757    1.00   0.00  0.00  0.00  0.71  0.29  0.00  0.00  0.43  0.00
  YS02001652YS02001649    1.00   0.00  0.00  0.00  0.98  0.02  0.00  0.00  0.78  0.00
  YS02001655YS02001652    1.00   0.00  0.00  0.00  0.16  0.03  0.00  0.82  0.07  0.00
  YS02001658YS02001655    1.00   0.00  0.12  0.00  0.62  0.26  0.00  0.00  0.75  0.00
  YS02001661YS02001658    1.00   0.12  0.00  0.00  0.34  0.55  0.00  0.00  0.75  0.00
  YS02001664YS02001661    1.00   0.11  0.00  0.00  0.76  0.13  0.00  0.00  0.87  0.00
  YS02001745YS02001748    1.00   0.00  0.00  0.00  0.00  0.03  0.00  0.97  0.02  0.00
  YS02001748YS02001751    1.00   0.00  0.00  0.00  0.77  0.23  0.00  0.00  0.83  0.00
  YS02001751YS02001754    1.00   0.00  0.00  0.00  0.13  0.01  0.00  0.86  0.05  0.00
  YS02001754YS02001757    1.00   0.00  0.00  0.00  1.00  0.00  0.00  0.00  0.84  0.00
  YS02001757CaochengTiaoxuchi    1.00   0.00  0.00  0.00  0.98  0.02  0.00  0.00  0.71  0.00
  YS02001759YS02001757    1.00   0.00  0.00  0.00  1.00  0.00  0.00  0.00  0.56  0.00
  YS02001762YS02001759    1.00   0.00  0.00  0.00  1.00  0.00  0.00  0.00  0.06  0.00
  YS02001765YS02001762    1.00   0.00  0.00  0.00  1.00  0.00  0.00  0.00  0.71  0.00
  YS02001767YS02001765    1.00   0.00  0.00  0.00  1.00  0.00  0.00  0.00  0.01  0.00
  YS02001770YS02001767    1.00   0.00  0.00  0.00  1.00  0.00  0.00  0.00  0.00  0.00
  YS02001774YS02001770    1.00   0.00  0.11  0.00  0.80  0.00  0.08  0.00  0.04  0.00
  YS02001779YS02001774    1.00   0.00  0.00  0.00  1.00  0.00  0.00  0.00  0.83  0.00
  YS02001783YS02001784    1.00   0.00  0.14  0.00  0.86  0.00  0.00  0.00  0.57  0.00
  YS02001784YS02001785    1.00   0.00  0.00  0.00  1.00  0.00  0.00  0.00  0.19  0.00
  YS02001786YS02001788    1.00   0.00  0.00  0.00  0.74  0.26  0.00  0.00  0.00  0.00
  YS02001788YS02001790    1.00   0.00  0.00  0.00  0.15  0.85  0.00  0.00  0.86  0.00
  YS02001790YS02001791    1.00   0.00  0.00  0.00  0.01  0.99  0.00  0.00  0.16  0.00
  YS02001791YS02001793    1.00   0.00  0.00  0.00  0.00  1.00  0.00  0.00  0.00  0.00
  YS02001793JiankangQianchi    1.00   0.00  0.00  0.00  1.00  0.00  0.00  0.00  1.00  0.00
  YS02001882YS02001884    1.00   0.12  0.00  0.00  0.87  0.00  0.00  0.00  0.00  0.00
  YS02001884YS02001887    1.00   0.08  0.03  0.00  0.89  0.00  0.00  0.00  0.00  0.00
  YS02001887YS02001890    1.00   0.00  0.00  0.00  0.98  0.00  0.02  0.00  0.00  0.00
  YS02001890YS02001895    1.00   0.00  0.13  0.00  0.87  0.00  0.00  0.00  0.00  0.00
  YS02001895YS02001898    1.00   0.13  0.00  0.00  0.85  0.00  0.01  0.00  0.00  0.00
  YS02001898YS02001901    1.00   0.13  0.00  0.00  0.87  0.00  0.00  0.00  0.01  0.00
  YS02001901YS02001904    1.00   0.13  0.00  0.00  0.87  0.00  0.00  0.00  0.00  0.00
  YS02001904YS02001907    1.00   0.00  0.13  0.00  0.87  0.00  0.00  0.00  0.00  0.00
  YS02001907YS02006553    1.00   0.00  0.01  0.00  0.98  0.00  0.00  0.00  0.00  0.00
  YS02001910YS02001907    1.00   0.00  0.00  0.00  0.98  0.00  0.00  0.02  0.12  0.00
  YS02001915YS02001910    1.00   0.00  0.00  0.00  0.98  0.02  0.00  0.00  0.18  0.00
  YS02001918YS02001915    1.00   0.00  0.00  0.00  0.98  0.01  0.00  0.00  0.79  0.00
  YS02001920YS02001918    1.00   0.00  0.00  0.00  1.00  0.00  0.00  0.00  0.00  0.00
  YS02001923YS02001920    1.00   0.00  0.00  0.00  1.00  0.00  0.00  0.00  0.96  0.00
  YS02001926YS02001923    1.00   0.00  0.09  0.00  0.03  0.00  0.88  0.00  0.00  0.00
  YS02001929YS02001926    1.00   0.00  0.11  0.00  0.89  0.00  0.00  0.00  0.86  0.00
  YS02006553YS02006556    1.00   0.01  0.00  0.00  0.99  0.00  0.00  0.00  0.03  0.00
  YS02006556YS02006558    1.00   0.00  0.00  0.00  1.00  0.00  0.00  0.00  0.00  0.00
  YS02006558YS02006561    1.00   0.14  0.00  0.00  0.02  0.84  0.00  0.00  0.20  0.00
  YS02006561YS02001783    1.00   0.14  0.00  0.00  0.06  0.80  0.00  0.00  0.72  0.00
  YS02163301YS02001633    1.00   0.00  0.12  0.00  0.88  0.00  0.00  0.00  0.00  0.00
  YS02163601YS02164001    1.00   0.00  0.09  0.00  0.91  0.00  0.00  0.00  0.00  0.00
  YS02164001YS02001641    1.00   0.00  0.09  0.00  0.91  0.00  0.00  0.00  0.06  0.00
  YSB1154YSB6556          1.00   0.11  0.00  0.00  0.89  0.00  0.00  0.00  0.02  0.00
  YSB1171HS02004479       1.00   0.03  0.00  0.00  0.93  0.01  0.00  0.03  0.11  0.00
  YSB1174YSB1171          1.00   0.06  0.04  0.00  0.90  0.00  0.00  0.00  0.00  0.00
  YSB6556YSB1171          1.00   0.03  0.08  0.00  0.89  0.00  0.00  0.00  0.00  0.00
  
  
  *************************
  Conduit Surcharge Summary
  *************************
  
  ----------------------------------------------------------------------------
                                                           Hours        Hours 
                         --------- Hours Full --------   Above Full   Capacity
  Conduit                Both Ends  Upstream  Dnstream   Normal Flow   Limited
  ----------------------------------------------------------------------------
  HS02004478WS02006287        0.15      0.15      0.29      0.01         0.01
  HS02004479HS02004480        0.30      0.30      0.31      0.01         0.01
  HS02004480HS02004478        0.24      0.30      0.24      1.30         0.24
  HS02004770HS02004777        0.21      0.22      0.22      0.17         0.11
  HS02004777HS02004785        0.17      0.17      0.22      0.01         0.01
  HS02004785HS02004788        0.16      0.17      0.16      0.92         0.16
  HS02004788HS02004792        0.16      0.16      0.26      0.01         0.01
  HS02004792HS02004799        0.26      0.26      0.36      0.01         0.01
  HS02004799HS02004480        0.30      0.30      0.36      0.42         0.01
  HS02004802HS02004478        0.25      0.25      0.30      0.01         0.01
  HS02004807HS02004802        0.28      0.28      0.30      0.01         0.01
  HS02004817HS02004807        0.28      0.28      0.74      0.01         0.01
  HS02004817HS02004824        0.17      0.17      0.74      0.01         0.01
  HS02004824HS02004830        0.14      0.14      0.17      0.01         0.01
  HS02004830HS02004837        0.07      0.07      0.14      0.01         0.01
  HS02004837HS02004842        0.07      0.07      0.23      0.01         0.01
  HS02004842HS02004848        0.04      0.04      0.23      0.01         0.01
  HS02004848HS02004852        0.04      0.04      0.07      0.01         0.01
  HS02004852HS02004856        0.07      0.07      0.09      0.01         0.01
  HS02004856HS02004862        0.06      0.06      0.10      0.01         0.01
  HS02004862HS02004870        0.10      0.10      0.12      0.02         0.01
  HS02004870HS02004876        0.12      0.12      0.20      0.01         0.01
  HS02004876HS02004881        0.18      0.20      0.18      0.95         0.18
  HS02004881HS02006253        0.18      0.18      1.86      0.01         0.01
  HS02004901HS02004770        0.22      0.22      0.22      0.01         0.01
  WS02003072WS02003073        0.01      0.01      0.01      3.52         0.01
  WS02004401WS02004402        1.20      1.20      1.22      0.87         0.86
  WS02004402WS02004403        1.22      1.22      1.22      1.20         1.19
  WS02004403WS02004404        1.22      1.22      1.41      0.01         0.01
  WS02004404WS02004405        1.37      1.41      1.37      4.46         1.37
  WS02004405WS02004406        1.33      1.37      1.33      1.84         1.33
  WS02004406WS02004407        0.01      0.01      1.33      0.01         0.01
  WS02004407WS02004409        0.01      0.01      0.54      0.01         0.01
  WS02004409WS02004410        0.48      0.54      0.48      1.06         0.48
  WS02004410WS02004411        0.45      0.48      0.45      1.18         0.45
  WS02004411WS02004412        0.38      0.45      0.38      1.20         0.38
  WS02004412WS02004413        0.38      0.38      0.82      0.01         0.01
  WS02004413WS02003067        0.01      0.01      0.82      0.01         0.01
  WS02006109WS02006110        1.70      1.70      2.64      1.74         0.01
  WS02006110WS02006113        0.81      0.81      2.52      0.23         0.01
  WS02006111WS02006112        0.75      0.75      3.39      0.01         0.01
  WS02006112WS02006115        1.09      1.09      1.95      0.01         0.01
  WS02006113WS02006111        0.78      0.81      0.78      0.83         0.77
  WS02006115WS02006116        1.13      1.13      1.14      1.02         1.00
  WS02006116WS02004401        1.20      1.20      1.20      1.19         1.19
  WS02006228WS02006109        2.40      2.64      2.40      3.78         2.40
  WS02006229WS02006228        2.39      2.43      2.39      3.34         2.38
  WS02006230WS02006229        2.95      3.25      2.95      4.42         2.30
  WS02006231WS02006230        1.48      1.49      1.79      4.16         0.58
  WS02006232WS02006231        1.71      1.71      2.34      0.06         0.06
  WS02006234WS02006232        2.08      2.08      2.34      0.05         0.07
  WS02006235WS02006234        1.95      1.96      2.11      3.95         0.54
  WS02006238WS02006235        2.14      2.15      2.30      0.01         0.16
  WS02006239WS02006238        2.17      2.24      2.18      2.20         1.10
  WS02006240WS02006239        2.09      2.14      2.09      2.13         1.03
  WS02006242WS02006240        2.11      2.11      2.53      2.74         0.45
  WS02006243WS02006242        2.14      2.14      2.36      0.01         0.03
  WS02006245WS02006243        2.11      2.12      2.11      1.58         0.97
  WS02006247WS02006245        2.10      2.16      2.10      3.67         1.45
  WS02006248WS02006247        2.11      2.11      2.14      0.01         0.04
  WS02006249WS02006248        2.09      2.09      2.12      2.93         0.01
  WS02006251WS02006249        2.11      2.12      2.12      2.70         2.05
  WS02006252WS02006251        2.86      2.86      2.89      2.72         0.01
  WS02006253WS02006251        2.10      2.11      2.16      0.41         0.03
  WS02006256WS02006235        4.21      4.28      7.41      0.51         0.01
  WS02006280WS02006229        0.39      0.39      0.47      0.01         0.01
  WS02006284WS02006280        0.31      0.31      0.37      0.01         0.01
  WS02006287WS02006284        0.24      0.24      0.32      0.01         0.01
  YS02001580YS02001583        0.12      0.12      0.19      0.01         0.01
  YS02001583YS02001586        0.14      0.14      0.32      0.01         0.01
  YS02001586YS02001590        0.32      0.32      0.38      0.01         0.01
  YS02001590YS02001593        0.39      0.39      0.40      0.40         0.01
  YS02001593YS02001596        0.39      0.39      0.47      0.01         0.01
  YS02001596YS02001600        0.51      0.51      0.59      0.01         0.01
  YS02001600YS02001601        0.65      0.65      0.93      0.01         0.01
  YS02001601YS02001602        0.81      0.81      0.98      0.61         0.01
  YS02001602YS02001605        0.76      0.76      0.81      1.83         0.01
  YS02001605YS02001607        0.72      0.76      0.72      0.89         0.72
  YS02001607YS02001610        0.34      0.34      0.36      0.01         0.01
  YS02001610YS02001613        0.33      0.33      0.36      0.01         0.01
  YS02001613YS02001616        0.30      0.30      0.33      0.01         0.01
  YS02001616YS02001619        0.28      0.28      0.30      0.01         0.01
  YS02001619YS02001622        0.28      0.28      0.28      0.41         0.27
  YS02001622YS02001625        0.28      0.28      0.44      0.01         0.01
  YS02001625YS02001629        0.22      0.22      0.44      0.01         0.01
  YS02001629YS02163301        0.43      0.43      0.44      0.27         0.21
  YS02001633YS02163601        0.46      0.46      0.48      0.32         0.32
  YS02001641YS02001644        0.35      0.39      0.35      1.04         0.35
  YS02001644YS02001647        0.05      0.05      0.35      0.01         0.01
  YS02001647YS02001649        0.05      0.05      0.20      0.01         0.01
  YS02001649YS02001757        0.19      0.20      0.24      0.12         0.06
  YS02001652YS02001649        0.01      0.01      0.20      0.01         0.01
  YS02001754YS02001757        0.01      0.01      0.24      0.01         0.01
  YS02001757CaochengTiaoxuchi        0.23      0.24      1.64      0.12         0.04
  YS02001759YS02001757        0.09      0.09      0.24      0.01         0.01
  YS02001762YS02001759        0.01      0.01      0.09      0.01         0.01
  YS02001765YS02001762        0.01      0.01      0.01      0.01         0.01
  YS02001770YS02001767        0.01      0.01      0.01      0.25         0.01
  YS02001774YS02001770        0.01      0.01      0.01      0.01         0.01
  YS02001779YS02001774        0.01      0.01      0.01      0.01         0.01
  YS02001783YS02001784        0.20      0.23      0.20      0.36         0.20
  YS02001784YS02001785        0.05      0.20      0.05      0.53         0.05
  YS02001786YS02001788        0.01      0.05      0.01      0.43         0.01
  YS02001790YS02001791        0.01      0.01      0.01      0.18         0.01
  YS02001793JiankangQianchi        0.01      0.01      6.68      0.01         0.01
  YS02001882YS02001884        0.17      0.17      0.18      0.01         0.01
  YS02001884YS02001887        0.21      0.21      0.22      0.01         0.01
  YS02001887YS02001890        0.24      0.24      0.25      0.01         0.01
  YS02001890YS02001895        0.16      0.16      0.26      0.01         0.01
  YS02001895YS02001898        0.15      0.15      0.16      0.01         0.01
  YS02001898YS02001901        0.16      0.16      0.21      0.01         0.01
  YS02001901YS02001904        0.20      0.20      0.21      0.01         0.01
  YS02001904YS02001907        0.20      0.20      0.42      0.01         0.01
  YS02001907YS02006553        0.55      0.55      0.59      0.01         0.01
  YS02001910YS02001907        0.26      0.26      0.41      0.01         0.01
  YS02001915YS02001910        0.17      0.17      0.26      0.01         0.01
  YS02001918YS02001915        0.01      0.01      0.17      0.01         0.01
  YS02001920YS02001918        0.01      0.01      0.06      0.01         0.01
  YS02001923YS02001920        0.01      0.01      0.06      0.01         0.01
  YS02006553YS02006556        0.34      0.34      0.42      0.01         0.01
  YS02006556YS02006558        0.38      0.38      0.43      0.01         0.01
  YS02006558YS02006561        0.09      0.33      0.09      0.50         0.09
  YS02006561YS02001783        0.01      0.01      0.23      0.01         0.01
  YS02163301YS02001633        0.44      0.44      0.47      0.01         0.01
  YS02163601YS02164001        0.40      0.40      0.48      0.15         0.01
  YS02164001YS02001641        0.39      0.40      0.39      0.51         0.39
  YSB1154YSB6556              0.34      0.34      0.44      0.01         0.01
  YSB1171HS02004479           0.26      0.26      0.45      0.01         0.01
  YSB1174YSB1171              0.39      0.39      0.65      0.01         0.01
  YSB6556YSB1171              0.34      0.34      0.79      0.01         0.01
  
  
  ***************
  Pumping Summary
  ***************
  
  ---------------------------------------------------------------------------------------------------------
                                                  Min       Avg       Max     Total     Power    % Time Off
                        Percent   Number of      Flow      Flow      Flow    Volume     Usage    Pump Curve
  Pump                 Utilized   Start-Ups       LPS       LPS       LPS  10^6 ltr     Kw-hr    Low   High
  ---------------------------------------------------------------------------------------------------------
  CC-R1                   11.19           7      0.00    683.00    683.00     2.201     40.52    0.0   10.0
  CC-R2                    2.37           9      0.00    683.00    683.00     0.467      8.33    0.0   48.0
  CC-S1                   41.23          25      0.00    200.00    200.00     2.375     15.76    0.0    0.0
  CC-S2                   39.97          19      0.00    200.00    200.00     2.302     15.40    0.0    0.0
  JK-R1                    3.29          16      0.00   1000.00   1000.00     0.948      8.06    0.0    0.0
  JK-R2                    3.36          16      0.00   1000.00   1000.00     0.966      7.77    0.0    0.0
  JK-S                     8.58          36      0.00    300.00    300.00     0.742     13.23    0.0    0.0
  XR-1                    97.91           2      0.00     95.00     95.00     2.679      9.64    0.0    0.0
  XR-2                    93.95           2      0.00     95.00     95.00     2.571      8.80    0.0    0.0
  XR-3                     0.00           1      0.00     95.00     95.00     0.000      0.00    0.0    0.0
  XR-4                     0.00           1      0.00     95.00     95.00     0.000      0.00    0.0    0.0
  

  Analysis begun on:  Mon Feb 27 13:40:44 2023
  Analysis ended on:  Mon Feb 27 13:40:48 2023
  Total elapsed time: 00:00:04