
  OWA STORM WATER MANAGEMENT MODEL - VERSION v5.1.14 (OWA 2023-01-25)
  --------------------------------------------------------------

  WARNING 04: minimum elevation drop used for Conduit WS02004404WS02004405
  WARNING 03: negative offset ignored for Link YS02001904YS02001907
  
  *********************************************************
  NOTE: The summary statistics displayed in this report are
  based on results found at every computational time step,  
  not just on results from each reporting time step.
  *********************************************************
  
  ****************
  Analysis Options
  ****************
  Flow Units ............... LPS
  Process Models:
    Rainfall/Runoff ........ YES
    RDII ................... NO
    Snowmelt ............... NO
    Groundwater ............ NO
    Flow Routing ........... YES
    Ponding Allowed ........ NO
    Water Quality .......... NO
  Infiltration Method ...... HORTON
  Flow Routing Method ...... DYNWAVE
  Surcharge Method ......... EXTRAN
  Starting Date ............ 08/28/2015 08:00:00
  Ending Date .............. 08/28/2015 16:00:00
  Antecedent Dry Days ...... 8.0
  Report Time Step ......... 00:01:00
  Wet Time Step ............ 00:01:00
  Dry Time Step ............ 00:01:00
  Routing Time Step ........ 30.00 sec
  Variable Time Step ....... YES
  Maximum Trials ........... 8
  Number of Threads ........ 4
  Head Tolerance ........... 0.001500 m
  
  
  **************************        Volume         Depth
  Runoff Quantity Continuity     hectare-m            mm
  **************************     ---------       -------
  Total Precipitation ......         5.444        89.868
  Evaporation Loss .........         0.000         0.000
  Infiltration Loss ........         0.251         4.137
  Surface Runoff ...........         5.133        84.738
  Final Storage ............         0.061         1.008
  Continuity Error (%) .....        -0.017
  
  
  **************************        Volume        Volume
  Flow Routing Continuity        hectare-m      10^6 ltr
  **************************     ---------     ---------
  Dry Weather Inflow .......         0.630         6.296
  Wet Weather Inflow .......         5.133        51.332
  Groundwater Inflow .......         0.000         0.000
  RDII Inflow ..............         0.000         0.000
  External Inflow ..........         0.105         1.045
  External Outflow .........         3.005        30.053
  Flooding Loss ............         2.857        28.567
  Evaporation Loss .........         0.000         0.000
  Exfiltration Loss ........         0.000         0.000
  Initial Stored Volume ....         0.303         3.031
  Final Stored Volume ......         0.323         3.227
  Continuity Error (%) .....        -0.233
  
  
  *************************
  Highest Continuity Errors
  *************************
  Node YS02001583 (-5.58%)
  Node YS02001884 (5.01%)
  Node WS02006256 (-1.94%)
  Node HS02004842 (1.32%)
  
  
  ***************************
  Time-Step Critical Elements
  ***************************
  Link WS02006252WS02006251 (24.43%)
  Link WS02006280WS02006229 (21.31%)
  Link WS02006238WS02006235 (19.54%)
  Link YS02001791YS02001793 (8.66%)
  Link WS02004404WS02004405 (6.34%)
  
  
  ********************************
  Highest Flow Instability Indexes
  ********************************
  Link WS02006113WS02006111 (42)
  Link WS02006238WS02006235 (28)
  Link WS02006111WS02006112 (27)
  Link WS02004404WS02004405 (25)
  Link WS02006229WS02006228 (25)
  
  
  *************************
  Routing Time Step Summary
  *************************
  Minimum Time Step           :     0.01 sec
  Average Time Step           :     1.88 sec
  Maximum Time Step           :     6.46 sec
  Percent in Steady State     :    -0.00
  Average Iterations per Step :     3.71
  Percent Not Converging      :    15.26
  
  
  ***************************
  Subcatchment Runoff Summary
  ***************************
  
  ------------------------------------------------------------------------------------------------------------------------------
                            Total      Total      Total      Total     Imperv       Perv      Total       Total     Peak  Runoff
                           Precip      Runon       Evap      Infil     Runoff     Runoff     Runoff      Runoff   Runoff   Coeff
  Subcatchment                 mm         mm         mm         mm         mm         mm         mm    10^6 ltr      LPS
  ------------------------------------------------------------------------------------------------------------------------------
  sub0                      89.87       0.00       0.00       1.04      82.33       5.26      87.59        0.07    45.41   0.975
  sub1                      89.87       0.00       0.00       1.78      78.74       8.11      86.85        0.58   319.82   0.966
  sub10                     89.87       0.00       0.00       1.25      81.40       5.94      87.34        0.96   541.59   0.972
  sub11                     89.87       0.00       0.00       1.23      81.42       5.96      87.38        1.02   592.49   0.972
  sub12                     89.87       0.00       0.00       2.00      77.01       9.69      86.70        0.76   470.40   0.965
  sub14                     89.87       0.00       0.00       1.40      80.52       6.68      87.21        0.83   476.48   0.970
  sub15                     89.87       0.00       0.00       5.50      61.94      21.47      83.41        1.43   762.04   0.928
  sub16                     89.87       0.00       0.00       5.69      59.31      23.97      83.28        0.87   501.05   0.927
  sub17                     89.87       0.00       0.00       5.55      60.19      23.22      83.40        0.72   408.16   0.928
  sub2                      89.87       0.00       0.00       7.85      55.71      25.40      81.12        0.76   345.44   0.903
  sub22                     89.87       0.00       0.00       8.33      50.45      30.32      80.77        5.10  2576.83   0.899
  sub23                     89.87       0.00       0.00       6.79      55.76      26.46      82.22        3.92  2105.88   0.915
  sub3                      89.87       0.00       0.00       8.55      55.67      24.71      80.38        1.81   754.34   0.894
  sub4                      89.87       0.00       0.00       1.98      78.56       7.91      86.48        1.80   820.30   0.962
  sub5                      89.87       0.00       0.00       1.09      82.28       5.20      87.48        0.99   549.35   0.973
  sub60                     89.87       0.00       0.00       1.89      77.88       8.90      86.78        1.14   671.44   0.966
  sub61                     89.87       0.00       0.00       2.73      73.46      12.55      86.01        1.58   933.40   0.957
  sub62                     89.87       0.00       0.00       1.26      81.39       5.94      87.33        2.39  1331.37   0.972
  sub63                     89.87       0.00       0.00       5.05      62.84      21.02      83.86        1.90  1073.97   0.933
  sub64                     89.87       0.00       0.00       2.55      75.18      10.93      86.11        2.07  1101.01   0.958
  sub65                     89.87       0.00       0.00       2.21      76.93       9.48      86.41        2.38  1234.22   0.962
  sub66                     89.87       0.00       0.00       6.25      62.73      19.82      82.55        3.85  1686.14   0.919
  sub67                     89.87       0.00       0.00       1.21      81.44       5.99      87.42        1.63   999.05   0.973
  sub68                     89.87       0.00       0.00       2.27      76.10      10.32      86.42        2.38  1361.20   0.962
  sub69                     89.87       0.00       0.00       2.04      76.28      11.44      87.72        3.25  1642.97   0.976
  sub7                      89.87       0.00       0.00       1.38      80.54       6.71      87.25        0.29   174.18   0.971
  sub70                     89.87       0.00       0.00       6.80      59.15      23.76      82.90        2.40   953.62   0.923
  sub71                     89.87       0.00       0.00       1.29      81.35       5.90      87.25        2.28  1188.30   0.971
  sub72                     89.87       0.00       0.00       1.15      82.17       5.14      87.32        1.20   586.21   0.972
  sub8                      89.87       0.00       0.00       1.40      80.53       6.69      87.22        0.56   322.91   0.971
  sub9                      89.87       0.00       0.00       1.40      80.53       6.69      87.21        0.42   241.80   0.970
  
  
  ******************
  Node Depth Summary
  ******************
  
  ---------------------------------------------------------------------------------
                                 Average  Maximum  Maximum  Time of Max    Reported
                                   Depth    Depth      HGL   Occurrence   Max Depth
  Node                 Type       Meters   Meters   Meters  days hr:min      Meters
  ---------------------------------------------------------------------------------
  HS02004478           JUNCTION     0.26     1.59    10.82     0  01:58        1.58
  HS02004479           JUNCTION     0.33     1.68    10.89     0  01:56        1.68
  HS02004480           JUNCTION     0.29     1.66    10.90     0  01:56        1.66
  HS02004770           JUNCTION     0.29     1.42    11.25     0  01:49        1.42
  HS02004777           JUNCTION     0.32     1.48    11.28     0  01:49        1.48
  HS02004785           JUNCTION     0.21     1.49    11.39     0  01:49        1.39
  HS02004788           JUNCTION     0.18     1.42    11.32     0  01:49        1.40
  HS02004792           JUNCTION     0.24     1.60    11.12     0  01:49        1.60
  HS02004799           JUNCTION     0.36     1.76    10.97     0  01:52        1.76
  HS02004802           JUNCTION     0.35     1.81    10.94     0  01:58        1.81
  HS02004807           JUNCTION     0.33     1.92    11.09     0  01:52        1.92
  HS02004817           JUNCTION     0.63     2.44    11.29     0  01:52        2.41
  HS02004824           JUNCTION     0.21     2.01    11.41     0  01:52        2.01
  HS02004830           JUNCTION     0.21     2.03    11.50     0  01:52        2.03
  HS02004837           JUNCTION     0.18     2.04    11.62     0  01:52        2.04
  HS02004842           JUNCTION     0.47     2.22    11.49     0  01:52        2.22
  HS02004848           JUNCTION     0.16     2.07    11.67     0  01:52        2.07
  HS02004852           JUNCTION     0.17     2.12    11.63     0  01:52        2.12
  HS02004856           JUNCTION     0.23     2.07    11.50     0  01:52        2.07
  HS02004862           JUNCTION     0.19     2.00    11.38     0  01:59        2.00
  HS02004870           JUNCTION     0.18     2.10    11.39     0  01:51        2.04
  HS02004876           JUNCTION     0.23     2.15    11.18     0  02:00        2.15
  HS02004881           JUNCTION     0.17     1.88    10.91     0  02:01        1.88
  HS02004901           JUNCTION     0.30     1.42    11.24     0  01:49        1.42
  WS02001211           JUNCTION     0.64     0.82     5.66     0  02:05        0.82
  WS02001212           JUNCTION     0.38     0.58     5.65     0  02:05        0.58
  WS02001213           JUNCTION     0.61     0.88     5.64     0  02:05        0.88
  WS02003059           JUNCTION     0.68     0.95     5.64     0  02:05        0.95
  WS02003060           JUNCTION     0.41     0.70     5.63     0  02:04        0.70
  WS02003066           JUNCTION     0.25     0.46     6.02     0  02:01        0.46
  WS02003067           JUNCTION     0.59     0.90     6.22     0  02:01        0.90
  WS02003069           JUNCTION     0.46     0.79     5.38     0  02:05        0.79
  WS02003072           JUNCTION     0.51     0.82     5.19     0  02:05        0.82
  WS02003073           JUNCTION     0.31     0.52     4.59     0  02:06        0.52
  WS02004138           JUNCTION     0.13     0.14     7.39     0  00:32        0.14
  WS02004139           JUNCTION     0.58     0.75     5.66     0  02:04        0.75
  WS02004401           JUNCTION     0.85     1.99     7.99     0  02:01        1.98
  WS02004402           JUNCTION     0.86     1.93     7.89     0  02:01        1.92
  WS02004403           JUNCTION     0.87     1.84     7.77     0  02:00        1.84
  WS02004404           JUNCTION     0.93     1.85     7.70     0  02:01        1.84
  WS02004405           JUNCTION     0.91     1.80     7.65     0  02:01        1.78
  WS02004406           JUNCTION     0.90     1.68     7.51     0  02:01        1.66
  WS02004407           JUNCTION     0.31     1.02     7.33     0  02:01        1.00
  WS02004409           JUNCTION     0.61     1.44     7.21     0  02:01        1.43
  WS02004410           JUNCTION     0.61     1.34     7.06     0  02:01        1.32
  WS02004411           JUNCTION     0.61     1.24     6.92     0  02:01        1.23
  WS02004412           JUNCTION     0.60     1.13     6.77     0  02:01        1.12
  WS02004413           JUNCTION     0.73     1.16     6.63     0  02:01        1.15
  WS02006109           JUNCTION     1.10     2.64     9.26     0  01:49        2.64
  WS02006110           JUNCTION     1.03     2.44     9.02     0  02:01        2.43
  WS02006111           JUNCTION     0.48     1.86     8.57     0  02:01        1.86
  WS02006112           JUNCTION     1.08     2.53     8.41     0  02:01        2.53
  WS02006113           JUNCTION     0.58     1.90     8.80     0  02:01        1.90
  WS02006115           JUNCTION     0.78     2.11     8.25     0  02:01        2.10
  WS02006116           JUNCTION     0.85     2.10     8.14     0  02:01        2.09
  WS02006228           JUNCTION     1.17     3.03     9.68     0  01:58        3.03
  WS02006229           JUNCTION     1.18     3.22     9.92     0  02:08        3.22
  WS02006230           JUNCTION     1.11     2.65     9.39     0  01:44        2.65
  WS02006231           JUNCTION     0.83     2.22     9.34     0  01:55        2.22
  WS02006232           JUNCTION     0.93     2.18     9.22     0  01:44        2.18
  WS02006234           JUNCTION     0.82     1.96     9.12     0  01:41        1.96
  WS02006235           JUNCTION     0.84     1.99     9.16     0  02:25        1.94
  WS02006238           JUNCTION     0.86     2.01     9.16     0  02:25        1.93
  WS02006239           JUNCTION     0.81     1.86     9.07     0  01:45        1.82
  WS02006240           JUNCTION     0.76     1.68     8.97     0  02:25        1.68
  WS02006242           JUNCTION     0.80     1.55     8.82     0  01:27        1.55
  WS02006243           JUNCTION     0.69     1.48     8.90     0  01:28        1.37
  WS02006245           JUNCTION     0.67     1.51     9.00     0  01:28        1.28
  WS02006247           JUNCTION     0.68     1.28     8.78     0  01:29        1.24
  WS02006248           JUNCTION     0.62     1.10     8.69     0  01:29        1.10
  WS02006249           JUNCTION     0.64     1.09     8.69     0  01:29        1.09
  WS02006251           JUNCTION     0.77     2.17     9.84     0  02:01        2.16
  WS02006252           JUNCTION     0.53     1.50     9.74     0  00:00        1.50
  WS02006253           JUNCTION     0.86     3.15    10.79     0  02:00        3.15
  WS02006256           JUNCTION     1.12     2.35     9.28     0  00:00        2.35
  WS02006280           JUNCTION     0.33     1.75    10.02     0  01:56        1.75
  WS02006284           JUNCTION     0.58     1.94    10.34     0  01:58        1.94
  WS02006287           JUNCTION     0.32     1.74    10.69     0  02:00        1.74
  WSF200               JUNCTION     0.25     0.53     5.77     0  02:01        0.53
  YS02001580           JUNCTION     0.11     1.05     9.59     0  01:47        0.80
  YS02001583           JUNCTION     0.14     1.00     9.50     0  01:47        0.82
  YS02001586           JUNCTION     0.22     1.13     9.30     0  01:47        1.13
  YS02001590           JUNCTION     0.32     1.40     9.26     0  01:47        1.38
  YS02001593           JUNCTION     0.26     1.33     9.20     0  01:47        1.29
  YS02001596           JUNCTION     0.35     1.68     9.10     0  01:47        1.65
  YS02001600           JUNCTION     0.42     1.87     9.00     0  01:47        1.86
  YS02001601           JUNCTION     0.60     2.06     8.90     0  01:46        2.06
  YS02001602           JUNCTION     0.52     1.87     8.77     0  01:47        1.87
  YS02001605           JUNCTION     0.48     1.78     8.68     0  02:32        1.78
  YS02001607           JUNCTION     0.47     1.65     8.49     0  01:56        1.64
  YS02001610           JUNCTION     0.51     1.68     8.48     0  01:47        1.68
  YS02001613           JUNCTION     0.47     1.67     8.51     0  02:00        1.66
  YS02001616           JUNCTION     0.41     1.61     8.52     0  01:55        1.61
  YS02001619           JUNCTION     0.39     1.61     8.54     0  01:55        1.61
  YS02001622           JUNCTION     0.37     1.58     8.49     0  02:00        1.58
  YS02001625           JUNCTION     0.63     1.78     8.38     0  01:51        1.78
  YS02001629           JUNCTION     0.50     1.85     8.40     0  01:53        1.85
  YS02001633           JUNCTION     0.58     2.08     8.53     0  01:55        2.08
  YS02001641           JUNCTION     0.56     1.97     8.40     0  01:55        1.97
  YS02001644           JUNCTION     0.56     1.92     8.35     0  01:54        1.92
  YS02001647           JUNCTION     0.36     1.77     8.38     0  01:56        1.77
  YS02001649           JUNCTION     0.41     2.00     8.39     0  02:00        2.00
  YS02001652           JUNCTION     0.31     1.85     8.45     0  02:00        1.85
  YS02001655           JUNCTION     0.24     1.66     8.51     0  01:54        1.65
  YS02001658           JUNCTION     0.18     1.56     8.70     0  01:54        1.43
  YS02001661           JUNCTION     0.18     1.23     8.64     0  02:01        1.22
  YS02001664           JUNCTION     0.07     0.70     8.63     0  02:01        0.70
  YS02001745           JUNCTION     0.09     0.91     8.43     0  02:01        0.91
  YS02001748           JUNCTION     0.17     1.35     8.43     0  01:55        1.33
  YS02001751           JUNCTION     0.21     1.51     8.39     0  02:00        1.51
  YS02001754           JUNCTION     0.28     1.76     8.37     0  02:00        1.76
  YS02001757           JUNCTION     0.44     2.08     8.34     0  02:00        2.08
  YS02001759           JUNCTION     0.39     2.11     8.47     0  01:56        2.11
  YS02001762           JUNCTION     0.38     2.11     8.51     0  01:56        2.11
  YS02001765           JUNCTION     0.36     2.07     8.52     0  01:56        2.07
  YS02001767           JUNCTION     0.35     2.02     8.51     0  01:56        2.02
  YS02001770           JUNCTION     0.36     1.95     8.45     0  01:55        1.95
  YS02001774           JUNCTION     0.42     2.01     8.44     0  01:56        2.01
  YS02001779           JUNCTION     0.26     1.68     8.37     0  01:52        1.68
  YS02001783           JUNCTION     0.25     1.25     7.39     0  01:58        1.24
  YS02001784           JUNCTION     0.26     1.13     7.20     0  01:58        1.12
  YS02001786           JUNCTION     0.22     0.89     6.92     0  01:58        0.88
  YS02001788           JUNCTION     0.16     0.63     6.60     0  02:01        0.62
  YS02001790           JUNCTION     0.19     0.73     6.37     0  02:01        0.72
  YS02001791           JUNCTION     0.12     0.44     5.91     0  01:57        0.44
  YS02001793           JUNCTION     0.06     0.30     5.14     0  02:00        0.30
  YS02001882           JUNCTION     0.32     1.67     8.39     0  02:00        1.67
  YS02001884           JUNCTION     0.41     1.77     8.39     0  02:00        1.77
  YS02001887           JUNCTION     0.48     1.86     8.40     0  02:00        1.86
  YS02001890           JUNCTION     0.51     1.81     8.32     0  01:52        1.81
  YS02001895           JUNCTION     0.29     1.57     8.31     0  01:52        1.56
  YS02001898           JUNCTION     0.30     1.58     8.32     0  01:55        1.58
  YS02001901           JUNCTION     0.41     1.69     8.30     0  01:52        1.68
  YS02001904           JUNCTION     0.39     1.65     8.28     0  01:52        1.63
  YS02001907           JUNCTION     0.70     1.96     8.25     0  01:52        1.96
  YS02001910           JUNCTION     0.51     1.98     8.49     0  01:53        1.96
  YS02001915           JUNCTION     0.33     1.94     8.65     0  01:53        1.92
  YS02001918           JUNCTION     0.19     1.81     8.88     0  01:53        1.63
  YS02001920           JUNCTION     0.27     2.04     9.05     0  01:53        1.71
  YS02001923           JUNCTION     0.14     1.91     9.17     0  01:53        1.49
  YS02001926           JUNCTION     0.18     1.81     9.25     0  01:53        1.32
  YS02001929           JUNCTION     0.10     1.78     9.47     0  01:53        1.10
  YS02006553           JUNCTION     0.70     2.00     8.29     0  01:55        2.00
  YS02006556           JUNCTION     0.67     1.99     8.30     0  01:56        1.99
  YS02006558           JUNCTION     0.72     2.07     8.34     0  01:56        2.07
  YS02006561           JUNCTION     0.16     0.92     7.58     0  01:58        0.91
  YS02163301           JUNCTION     0.52     1.98     8.49     0  01:55        1.98
  YS02163601           JUNCTION     0.61     2.08     8.48     0  01:55        2.08
  YS02164001           JUNCTION     0.55     2.03     8.48     0  01:55        2.03
  YSB1154              JUNCTION     0.46     2.03    11.09     0  02:00        2.03
  YSB1171              JUNCTION     0.60     1.95    10.85     0  01:52        1.95
  YSB1174              JUNCTION     0.41     1.86    10.97     0  02:00        1.86
  YSB6556              JUNCTION     0.36     1.79    10.96     0  02:00        1.79
  CC-1                 OUTFALL      0.00     0.00     0.00     0  00:00        0.00
  CC-2                 OUTFALL      0.00     0.00     0.00     0  00:00        0.00
  JK-1                 OUTFALL      0.00     0.00     0.00     0  00:00        0.00
  JK-2                 OUTFALL      0.00     0.00     0.00     0  00:00        0.00
  WSC                  OUTFALL      0.31     0.52     1.19     0  02:06        0.52
  CC-storage           STORAGE      0.91     1.91     7.41     0  02:35        1.91
  JK-storage           STORAGE      1.45     4.23     5.03     0  01:59        4.18
  XR-storage           STORAGE      7.89     9.26     7.26     0  08:00        9.26
  
  
  *******************
  Node Inflow Summary
  *******************
  
  -------------------------------------------------------------------------------------------------
                                  Maximum  Maximum                  Lateral       Total        Flow
                                  Lateral    Total  Time of Max      Inflow      Inflow     Balance
                                   Inflow   Inflow   Occurrence      Volume      Volume       Error
  Node                 Type           LPS      LPS  days hr:min    10^6 ltr    10^6 ltr     Percent
  -------------------------------------------------------------------------------------------------
  HS02004478           JUNCTION      0.00  2305.60     0  01:58           0          11      -0.005
  HS02004479           JUNCTION      0.00   394.56     0  01:52           0        1.08       0.062
  HS02004480           JUNCTION      0.00  2067.88     0  01:51           0        8.08       0.021
  HS02004770           JUNCTION   2105.88  2105.88     0  02:02        3.92        4.19       0.064
  HS02004777           JUNCTION      0.03   702.23     0  01:48    0.000864        2.25       0.219
  HS02004785           JUNCTION      0.15   709.76     0  01:48     0.00432        2.25       0.018
  HS02004788           JUNCTION    763.71   893.10     0  02:01        1.48        3.74       0.002
  HS02004792           JUNCTION   2577.11  3464.60     0  02:02        5.11        8.84       0.004
  HS02004799           JUNCTION    476.48  1715.65     0  01:50        0.83        7.41       0.042
  HS02004802           JUNCTION      0.00  1233.17     0  02:07           0        3.14       0.124
  HS02004807           JUNCTION    592.49  1788.98     0  02:02        1.02        3.47       0.109
  HS02004817           JUNCTION      0.60  1197.01     0  02:05      0.0173        2.51       0.664
  HS02004824           JUNCTION    820.35  1402.49     0  02:03        1.81        2.81       0.007
  HS02004830           JUNCTION      0.15   585.02     0  02:02     0.00432        1.25       0.063
  HS02004837           JUNCTION    547.94   756.65     0  01:51        1.15        1.65       0.011
  HS02004842           JUNCTION      0.00   759.00     0  01:50           0       0.965       1.341
  HS02004848           JUNCTION    754.34  1001.81     0  01:51        1.81        2.49      -0.019
  HS02004852           JUNCTION      0.00   990.26     0  01:51           0        2.23       0.006
  HS02004856           JUNCTION    241.80  1031.80     0  01:51       0.419        2.65       0.040
  HS02004862           JUNCTION    345.64  1130.38     0  01:51       0.762        3.41       0.022
  HS02004870           JUNCTION    322.91  1257.71     0  02:07       0.557        3.91      -0.015
  HS02004876           JUNCTION    319.82  1515.36     0  02:06       0.578        4.48       0.010
  HS02004881           JUNCTION    174.18  1671.19     0  02:02       0.294        4.78      -0.005
  HS02004901           JUNCTION    501.05   766.43     0  02:02       0.872         1.4       0.118
  WS02001211           JUNCTION      7.35   204.64     0  03:18       0.212        5.44       0.613
  WS02001212           JUNCTION      0.00   210.84     0  03:18           0        5.41       0.289
  WS02001213           JUNCTION      0.00   214.11     0  03:18           0        5.39       0.335
  WS02003059           JUNCTION      0.00   218.48     0  03:19           0        5.38       0.599
  WS02003060           JUNCTION     16.53  1545.62     0  02:04       0.476        17.6       0.085
  WS02003066           JUNCTION      0.00  1347.28     0  02:01           0        11.8       0.015
  WS02003067           JUNCTION      0.00  1344.82     0  02:01           0        11.8       0.039
  WS02003069           JUNCTION      0.32  1544.82     0  02:04     0.00922        17.6       0.091
  WS02003072           JUNCTION      0.00  1544.59     0  02:05           0        17.6       0.122
  WS02003073           JUNCTION      1.82  1546.25     0  02:05      0.0524        17.6       0.127
  WS02004138           JUNCTION      0.00   380.00     0  00:00           0        5.25       0.055
  WS02004139           JUNCTION      0.32   190.32     0  00:32     0.00924        5.26       0.509
  WS02004401           JUNCTION      0.00  1343.90     0  02:01           0        11.9       0.090
  WS02004402           JUNCTION      0.00  1343.76     0  02:01           0        11.9       0.093
  WS02004403           JUNCTION      0.00  1344.53     0  02:01           0        11.9       0.089
  WS02004404           JUNCTION      0.16  1345.13     0  02:01     0.00467        11.9       0.078
  WS02004405           JUNCTION      0.04  1344.70     0  02:01      0.0011        11.9       0.106
  WS02004406           JUNCTION      0.00  1344.50     0  02:01           0        11.9       0.182
  WS02004407           JUNCTION      0.00  1344.29     0  02:01           0        11.9       0.014
  WS02004409           JUNCTION      0.00  1344.45     0  02:01           0        11.9       0.031
  WS02004410           JUNCTION      0.00  1344.58     0  02:01           0        11.9       0.047
  WS02004411           JUNCTION      0.00  1344.77     0  02:01           0        11.9       0.057
  WS02004412           JUNCTION      0.00  1344.75     0  02:01           0        11.8       0.072
  WS02004413           JUNCTION      0.00  1345.04     0  02:01           0        11.8       0.131
  WS02006109           JUNCTION      1.23  1289.51     0  01:58      0.0354        11.7       0.070
  WS02006110           JUNCTION      0.00  1124.95     0  02:28           0        11.3       0.069
  WS02006111           JUNCTION      0.00  1125.11     0  02:28           0        11.3       0.002
  WS02006112           JUNCTION    408.16  1342.96     0  02:01       0.716          12       0.156
  WS02006113           JUNCTION      0.00  1125.02     0  02:28           0        11.3       0.028
  WS02006115           JUNCTION      0.00  1342.80     0  02:01           0        11.9       0.061
  WS02006116           JUNCTION      0.00  1343.15     0  02:01           0        11.9       0.042
  WS02006228           JUNCTION      0.00  1288.60     0  01:58           0        11.7       0.033
  WS02006229           JUNCTION      0.00  2306.50     0  01:58           0        15.1       0.057
  WS02006230           JUNCTION     10.28  1026.46     0  01:58       0.296        7.51       0.097
  WS02006231           JUNCTION      0.00   575.66     0  05:00           0        5.82      -0.024
  WS02006232           JUNCTION      0.00   573.70     0  05:00           0        5.81       0.101
  WS02006234           JUNCTION      0.00   563.56     0  05:00           0         5.8      -0.136
  WS02006235           JUNCTION      0.00   557.42     0  05:10           0        5.75       0.131
  WS02006238           JUNCTION      0.00   428.75     0  04:06           0        5.57      -0.247
  WS02006239           JUNCTION      0.00   427.13     0  03:47           0        5.53      -0.206
  WS02006240           JUNCTION      0.00   427.00     0  03:47           0        5.51       0.007
  WS02006242           JUNCTION      0.00   427.34     0  04:05           0        5.51       0.022
  WS02006243           JUNCTION      0.00   428.65     0  04:05           0        4.95      -0.269
  WS02006245           JUNCTION      0.00   427.60     0  04:05           0        4.96       0.254
  WS02006247           JUNCTION      0.00   426.90     0  04:05           0        4.96      -0.005
  WS02006248           JUNCTION      0.00   426.24     0  04:05           0         5.3      -0.036
  WS02006249           JUNCTION      0.00  1380.90     0  02:01           0        9.48       0.081
  WS02006251           JUNCTION      0.08  1715.68     0  02:01     0.00222        9.82      -0.016
  WS02006252           JUNCTION      0.00   735.34     0  02:01           0        5.84      -0.272
  WS02006253           JUNCTION     45.41  1716.40     0  02:01      0.0709        4.94       0.020
  WS02006256           JUNCTION      0.00   300.00     0  00:00           0       0.992      -1.906
  WS02006280           JUNCTION      0.00  2304.47     0  01:59           0          11       0.000
  WS02006284           JUNCTION      0.10  2304.37     0  01:58     0.00275          11       0.006
  WS02006287           JUNCTION      0.00  2304.98     0  01:58           0          11       0.006
  WSF200               JUNCTION      0.00  1347.90     0  02:01           0        11.8       0.007
  YS02001580           JUNCTION      0.00    73.15     0  01:47           0     0.00422       1.965
  YS02001583           JUNCTION      0.00   124.23     0  01:47           0      0.0154      -5.282
  YS02001586           JUNCTION    953.62   953.64     0  02:04         2.4        2.41       0.043
  YS02001590           JUNCTION      0.00   318.05     0  01:56           0        1.67      -0.014
  YS02001593           JUNCTION      0.00   318.08     0  01:56           0        1.67       0.005
  YS02001596           JUNCTION      0.00   317.94     0  02:25           0        1.67      -0.008
  YS02001600           JUNCTION      0.00   317.97     0  02:05           0        1.67       0.020
  YS02001601           JUNCTION   1642.97  1960.45     0  02:03        3.25        4.92       0.018
  YS02001602           JUNCTION      0.00   498.63     0  01:46           0        2.71       0.018
  YS02001605           JUNCTION      0.00   497.86     0  01:46           0        2.53       0.026
  YS02001607           JUNCTION      0.00   497.29     0  01:46           0        2.53       0.081
  YS02001610           JUNCTION      0.00   950.01     0  02:04           0        3.05       0.077
  YS02001613           JUNCTION      0.00   614.64     0  02:04           0        2.34       0.070
  YS02001616           JUNCTION      0.00   614.16     0  02:04           0        2.34       0.016
  YS02001619           JUNCTION   1686.14  1686.14     0  02:04        3.85        5.67      -0.002
  YS02001622           JUNCTION      0.00  1053.65     0  02:04           0        5.14      -0.003
  YS02001625           JUNCTION      0.00  1503.29     0  02:04           0        5.57       0.185
  YS02001629           JUNCTION      0.00   916.88     0  01:50           0         3.9       0.002
  YS02001633           JUNCTION   1234.42  1317.45     0  01:50        2.38         5.8       0.060
  YS02001641           JUNCTION      0.00  1315.01     0  01:50           0        5.32       0.051
  YS02001644           JUNCTION   1101.05  1771.75     0  02:02        2.07        7.39       0.047
  YS02001647           JUNCTION      0.00  1681.43     0  01:51           0         6.3       0.003
  YS02001649           JUNCTION      0.00  1891.92     0  01:50           0        8.21       0.003
  YS02001652           JUNCTION      0.00  1087.30     0  02:01           0        1.91      -0.059
  YS02001655           JUNCTION      0.15  1087.58     0  02:01     0.00443        1.91       0.003
  YS02001658           JUNCTION      0.00  1087.38     0  02:01           0         1.9      -0.036
  YS02001661           JUNCTION      0.00  1087.28     0  02:01           0         1.9       0.013
  YS02001664           JUNCTION   1073.97  1073.97     0  02:02         1.9         1.9      -0.007
  YS02001745           JUNCTION    671.44   671.44     0  02:02        1.14        1.14       0.121
  YS02001748           JUNCTION      0.04   681.04     0  02:01      0.0013        1.14      -0.179
  YS02001751           JUNCTION      0.01   681.89     0  02:01    0.000317        1.15       0.080
  YS02001754           JUNCTION      0.26   681.86     0  02:01     0.00749        1.16      -0.120
  YS02001757           JUNCTION      0.00  3105.67     0  02:00           0        12.9       0.020
  YS02001759           JUNCTION    933.44  1336.26     0  02:01        1.58         3.5      -0.011
  YS02001762           JUNCTION      0.00   701.94     0  01:56           0        1.92      -0.002
  YS02001765           JUNCTION      0.00   703.09     0  01:56           0        1.92      -0.004
  YS02001767           JUNCTION      0.54   705.22     0  01:56      0.0154        1.92      -0.002
  YS02001770           JUNCTION   1331.52  1331.52     0  02:02         2.4        2.44      -0.015
  YS02001774           JUNCTION      0.00   849.10     0  02:03           0       0.549       0.197
  YS02001779           JUNCTION      0.01   849.28     0  02:03    0.000144       0.504      -0.159
  YS02001783           JUNCTION      0.00  1168.29     0  01:59           0        5.14       0.005
  YS02001784           JUNCTION      1.06  1169.53     0  01:59      0.0305        5.17       0.009
  YS02001786           JUNCTION      0.06  1169.98     0  02:00     0.00162        5.17       0.012
  YS02001788           JUNCTION      0.07  1170.24     0  02:00     0.00204        5.17       0.006
  YS02001790           JUNCTION      0.15  1178.12     0  01:58     0.00446        5.18       0.022
  YS02001791           JUNCTION      0.00  1293.59     0  02:01           0        5.17      -0.032
  YS02001793           JUNCTION      0.00  1256.34     0  02:01           0        5.18       0.005
  YS02001882           JUNCTION      0.00    30.47     0  01:49           0      0.0129       4.800
  YS02001884           JUNCTION      0.00    38.89     0  01:47           0      0.0489       5.274
  YS02001887           JUNCTION    999.50  1000.86     0  02:01        1.64        1.67       0.263
  YS02001890           JUNCTION      0.00  1000.32     0  02:01           0        1.63       0.316
  YS02001895           JUNCTION      0.00   517.93     0  02:08           0        1.42       0.130
  YS02001898           JUNCTION      0.00   517.69     0  02:05           0        1.42       0.006
  YS02001901           JUNCTION      0.00   518.10     0  02:08           0        1.42       0.231
  YS02001904           JUNCTION      0.00   517.91     0  02:08           0        1.43       0.194
  YS02001907           JUNCTION      0.00  2494.04     0  02:02           0        5.03       0.354
  YS02001910           JUNCTION      0.00  1778.15     0  02:02           0        3.57       0.200
  YS02001915           JUNCTION   1188.32  1778.11     0  02:02        2.28        3.59       0.044
  YS02001918           JUNCTION      0.00   591.03     0  02:03           0        1.33       0.008
  YS02001920           JUNCTION      2.87   590.78     0  02:03      0.0827        1.32       0.072
  YS02001923           JUNCTION      0.04   587.40     0  02:02     0.00109        1.22      -0.020
  YS02001926           JUNCTION      0.05   587.04     0  02:02      0.0015        1.21       0.005
  YS02001929           JUNCTION    586.21   586.21     0  02:03         1.2         1.2      -0.049
  YS02006553           JUNCTION      0.00   794.93     0  02:24           0        2.87       0.412
  YS02006556           JUNCTION      0.00   794.59     0  02:24           0        2.88       0.276
  YS02006558           JUNCTION   1362.08  1362.08     0  02:02         2.4        5.21       0.065
  YS02006561           JUNCTION      0.00  1168.39     0  02:00           0        5.14      -0.003
  YS02163301           JUNCTION      0.00   917.78     0  01:50           0         3.9       0.039
  YS02163601           JUNCTION      0.11  1317.48     0  01:50     0.00317        5.31       0.092
  YS02164001           JUNCTION      0.00  1316.66     0  01:50           0        5.31       0.042
  YSB1154              JUNCTION    549.35   549.35     0  02:02       0.991       0.992       0.150
  YSB1171              JUNCTION      0.00  1249.06     0  02:01           0        1.96       0.324
  YSB1174              JUNCTION    470.40   470.40     0  02:01       0.758       0.758       0.171
  YSB6556              JUNCTION      0.00   549.35     0  02:02           0       0.992       0.121
  CC-1                 OUTFALL       0.00   683.00     0  00:00           0        4.37       0.000
  CC-2                 OUTFALL       0.00   683.00     0  00:00           0        3.76       0.000
  JK-1                 OUTFALL       0.00  1000.00     0  00:00           0        2.26       0.000
  JK-2                 OUTFALL       0.00  1000.00     0  00:00           0        2.05       0.000
  WSC                  OUTFALL       0.00  1545.75     0  02:06           0        17.6       0.000
  CC-storage           STORAGE       0.00  3107.09     0  02:00           0        15.1      -0.194
  JK-storage           STORAGE       0.00  1262.41     0  02:00           0        5.33      -0.315
  XR-storage           STORAGE     200.00   200.00     0  00:00        5.76        6.36       0.001
  
  
  **********************
  Node Surcharge Summary
  **********************
  
  Surcharging occurs when water rises above the top of the highest conduit.
  ---------------------------------------------------------------------
                                               Max. Height   Min. Depth
                                   Hours       Above Crown    Below Rim
  Node                 Type      Surcharged         Meters       Meters
  ---------------------------------------------------------------------
  HS02004478           JUNCTION        0.73          0.669        0.271
  HS02004479           JUNCTION        0.89          0.884        0.166
  HS02004480           JUNCTION        0.94          0.946        0.154
  HS02004770           JUNCTION        0.82          0.720        0.000
  HS02004777           JUNCTION        0.83          0.780        0.000
  HS02004785           JUNCTION        0.76          0.790        0.000
  HS02004788           JUNCTION        0.75          0.720        0.000
  HS02004792           JUNCTION        0.90          0.900        0.000
  HS02004799           JUNCTION        1.07          1.060        0.000
  HS02004802           JUNCTION        0.95          1.102        0.108
  HS02004807           JUNCTION        0.93          1.220        0.000
  HS02004817           JUNCTION        1.60          1.740        0.000
  HS02004824           JUNCTION        0.75          1.310        0.000
  HS02004830           JUNCTION        0.72          1.330        0.000
  HS02004837           JUNCTION        0.67          1.340        0.000
  HS02004842           JUNCTION        0.84          1.520        0.000
  HS02004848           JUNCTION        0.63          1.370        0.000
  HS02004852           JUNCTION        0.66          1.420        0.000
  HS02004856           JUNCTION        0.65          1.300        0.000
  HS02004862           JUNCTION        0.69          1.300        0.000
  HS02004870           JUNCTION        0.72          1.400        0.000
  HS02004876           JUNCTION        0.81          1.445        0.115
  HS02004881           JUNCTION        0.79          1.178        0.272
  HS02004901           JUNCTION        0.82          0.720        0.000
  WS02004401           JUNCTION        1.84          0.993        0.667
  WS02004402           JUNCTION        1.87          0.929        0.811
  WS02004403           JUNCTION        1.88          0.843        1.187
  WS02004404           JUNCTION        2.06          0.849        1.931
  WS02004405           JUNCTION        2.03          0.797        2.003
  WS02004406           JUNCTION        1.98          0.679        1.771
  WS02004407           JUNCTION        0.01          0.017        2.323
  WS02004409           JUNCTION        1.42          0.439        1.921
  WS02004410           JUNCTION        1.34          0.344        2.196
  WS02004411           JUNCTION        1.25          0.239        2.291
  WS02004412           JUNCTION        1.12          0.130        2.180
  WS02004413           JUNCTION        1.61          0.159        2.041
  WS02006109           JUNCTION        3.13          1.820        0.000
  WS02006110           JUNCTION        2.37          1.527        0.323
  WS02006111           JUNCTION        1.58          1.053        0.817
  WS02006112           JUNCTION        2.63          1.527        0.153
  WS02006113           JUNCTION        1.59          1.105        0.825
  WS02006115           JUNCTION        1.74          1.096        1.154
  WS02006116           JUNCTION        1.76          1.039        1.251
  WS02006228           JUNCTION        3.09          2.200        0.000
  WS02006229           JUNCTION        1.29          1.045        0.025
  WS02006230           JUNCTION        2.16          1.570        0.000
  WS02006231           JUNCTION        2.39          1.506        0.024
  WS02006232           JUNCTION        3.19          1.480        0.000
  WS02006234           JUNCTION        2.79          1.240        0.000
  WS02006235           JUNCTION        2.92          1.284        0.006
  WS02006238           JUNCTION        3.04          1.291        0.139
  WS02006239           JUNCTION        2.95          1.123        0.167
  WS02006240           JUNCTION        2.96          0.968        0.422
  WS02006242           JUNCTION        3.24          0.820        0.000
  WS02006243           JUNCTION        2.97          0.770        0.000
  WS02006245           JUNCTION        2.96          0.803        0.047
  WS02006247           JUNCTION        3.02          0.572        0.188
  WS02006248           JUNCTION        2.92          0.380        0.000
  WS02006249           JUNCTION        2.99          0.390        0.000
  WS02006251           JUNCTION        2.55          1.135        0.045
  WS02006252           JUNCTION        3.75          1.100        0.000
  WS02006253           JUNCTION        2.65          2.108        0.372
  WS02006256           JUNCTION        7.81          2.050        0.000
  WS02006280           JUNCTION        1.10          0.699        0.081
  WS02006284           JUNCTION        0.98          0.665        0.135
  WS02006287           JUNCTION        0.85          0.738        0.152
  YS02001580           JUNCTION        0.91          0.450        0.000
  YS02001583           JUNCTION        0.91          0.360        0.140
  YS02001586           JUNCTION        1.11          0.510        0.000
  YS02001590           JUNCTION        1.21          0.750        0.000
  YS02001593           JUNCTION        1.21          0.714        0.126
  YS02001596           JUNCTION        1.36          0.954        0.116
  YS02001600           JUNCTION        1.49          1.190        0.000
  YS02001601           JUNCTION        1.77          1.440        0.000
  YS02001602           JUNCTION        1.69          1.270        0.000
  YS02001605           JUNCTION        1.65          1.179        0.001
  YS02001607           JUNCTION        1.24          0.646        0.034
  YS02001610           JUNCTION        1.27          0.680        0.000
  YS02001613           JUNCTION        1.24          0.670        0.030
  YS02001616           JUNCTION        1.19          0.610        0.000
  YS02001619           JUNCTION        1.17          0.610        0.000
  YS02001622           JUNCTION        1.17          0.583        0.037
  YS02001625           JUNCTION        1.35          0.780        0.000
  YS02001629           JUNCTION        1.09          0.470        0.000
  YS02001633           JUNCTION        1.39          1.060        0.000
  YS02001641           JUNCTION        1.34          0.968        0.132
  YS02001644           JUNCTION        1.32          0.920        0.000
  YS02001647           JUNCTION        1.11          0.771        0.129
  YS02001649           JUNCTION        1.23          1.004        0.046
  YS02001652           JUNCTION        1.03          0.822        0.308
  YS02001655           JUNCTION        0.82          0.664        0.536
  YS02001658           JUNCTION        0.45          0.562        0.738
  YS02001661           JUNCTION        0.12          0.162        1.228
  YS02001748           JUNCTION        0.34          0.269        0.921
  YS02001751           JUNCTION        0.66          0.514        0.686
  YS02001754           JUNCTION        0.95          0.708        0.442
  YS02001757           JUNCTION        1.30          1.076        0.134
  YS02001759           JUNCTION        1.22          1.109        0.101
  YS02001762           JUNCTION        1.19          1.110        0.040
  YS02001765           JUNCTION        1.16          1.072        0.028
  YS02001767           JUNCTION        1.13          1.020        0.010
  YS02001770           JUNCTION        1.09          0.920        0.000
  YS02001774           JUNCTION        1.18          1.014        0.036
  YS02001779           JUNCTION        0.93          0.680        0.000
  YS02001783           JUNCTION        0.77          0.445        1.155
  YS02001784           JUNCTION        0.73          0.334        1.156
  YS02001786           JUNCTION        0.60          0.086        1.344
  YS02001882           JUNCTION        0.69          0.673        0.157
  YS02001884           JUNCTION        0.70          0.708        0.162
  YS02001887           JUNCTION        0.75          0.808        0.142
  YS02001890           JUNCTION        0.77          0.760        0.000
  YS02001895           JUNCTION        0.68          0.567        0.183
  YS02001898           JUNCTION        0.67          0.555        0.185
  YS02001901           JUNCTION        0.73          0.686        0.184
  YS02001904           JUNCTION        0.72          0.647        0.203
  YS02001907           JUNCTION        1.06          0.950        0.000
  YS02001910           JUNCTION        0.80          0.984        0.116
  YS02001915           JUNCTION        0.69          0.937        0.063
  YS02001918           JUNCTION        0.58          0.810        0.000
  YS02001920           JUNCTION        0.60          1.041        0.099
  YS02001923           JUNCTION        0.20          0.704        0.116
  YS02001926           JUNCTION        0.25          0.806        0.094
  YS02001929           JUNCTION        0.06          0.780        0.000
  YS02006553           JUNCTION        1.09          1.005        0.185
  YS02006556           JUNCTION        0.93          0.950        0.400
  YS02006558           JUNCTION        0.91          0.969        0.431
  YS02006561           JUNCTION        0.54          0.115        1.035
  YS02163301           JUNCTION        1.37          0.976        0.054
  YS02163601           JUNCTION        1.43          1.080        0.000
  YS02164001           JUNCTION        1.34          1.027        0.073
  YSB1154              JUNCTION        1.25          1.329        0.071
  YSB1171              JUNCTION        1.26          1.100        0.000
  YSB1174              JUNCTION        1.12          1.163        0.087
  YSB6556              JUNCTION        1.02          1.088        0.012
  
  
  *********************
  Node Flooding Summary
  *********************
  
  Flooding refers to all water that overflows a node, whether it ponds or not.
  --------------------------------------------------------------------------
                                                             Total   Maximum
                                 Maximum   Time of Max       Flood    Ponded
                        Hours       Rate    Occurrence      Volume     Depth
  Node                 Flooded       LPS   days hr:min    10^6 ltr    Meters
  --------------------------------------------------------------------------
  HS02004770              0.57   1716.71      0  02:02       1.406     0.000
  HS02004777              0.01     41.71      0  01:49       0.000     0.000
  HS02004785              0.01     49.83      0  01:49       0.000     0.000
  HS02004788              0.01    153.06      0  01:49       0.000     0.000
  HS02004792              0.56   2322.22      0  02:02       2.260     0.000
  HS02004799              0.32    313.93      0  02:02       0.196     0.000
  HS02004807              0.21    556.79      0  02:01       0.289     0.000
  HS02004817              0.01      7.36      0  01:52       0.000     0.000
  HS02004824              0.14    206.55      0  02:03       0.075     0.000
  HS02004830              0.01     40.53      0  01:52       0.000     0.000
  HS02004837              0.01     61.27      0  01:52       0.000     0.000
  HS02004842              0.13    210.11      0  02:03       0.065     0.000
  HS02004848              0.01     67.42      0  01:52       0.000     0.000
  HS02004852              0.01     36.01      0  01:52       0.000     0.000
  HS02004856              0.01     31.10      0  01:52       0.000     0.000
  HS02004862              0.12    227.01      0  02:02       0.058     0.000
  HS02004870              0.01    225.25      0  01:51       0.000     0.000
  HS02004901              0.67    766.40      0  02:02       1.131     0.000
  WS02006109              0.64    354.87      0  02:01       0.436     0.000
  WS02006228              0.01      0.51      0  01:58       0.000     0.000
  WS02006230              0.99    573.77      0  01:58       1.433     0.000
  WS02006232              0.22      1.25      0  01:50       0.000     0.000
  WS02006234              1.10    128.74      0  02:14       0.320     0.000
  WS02006242              1.26    197.70      0  01:27       0.547     0.000
  WS02006243              0.01     86.88      0  01:28       0.000     0.000
  WS02006248              1.56    339.89      0  01:45       1.663     0.000
  WS02006249              2.35   1320.03      0  02:01       5.503     0.000
  WS02006252              0.72    735.17      0  02:01       0.973     0.000
  WS02006256              0.91    296.83      0  02:09       0.610     0.000
  YS02001580              0.01     44.94      0  01:47       0.000     0.000
  YS02001586              0.72    636.12      0  02:04       0.722     0.000
  YS02001590              0.01     10.16      0  01:47       0.000     0.000
  YS02001600              0.01      3.22      0  01:47       0.000     0.000
  YS02001601              1.02   1562.63      0  02:03       2.206     0.000
  YS02001602              0.90     61.99      0  02:25       0.185     0.000
  YS02001610              0.80    949.77      0  02:04       1.225     0.000
  YS02001616              0.02      1.76      0  02:04       0.000     0.000
  YS02001619              0.07     31.82      0  02:03       0.004     0.000
  YS02001625              0.78   1503.07      0  02:04       2.140     0.000
  YS02001629              0.22    170.81      0  02:02       0.061     0.000
  YS02001633              0.01      0.02      0  01:55       0.000     0.000
  YS02001644              0.36   1771.55      0  02:02       1.074     0.000
  YS02001770              0.06     92.02      0  02:01       0.011     0.000
  YS02001779              0.31    849.17      0  02:03       0.485     0.000
  YS02001890              0.27    484.12      0  02:01       0.204     0.000
  YS02001907              0.52   2493.57      0  02:02       2.196     0.000
  YS02001918              0.01     69.90      0  01:53       0.000     0.000
  YS02001929              0.01    167.08      0  01:53       0.000     0.000
  YS02163601              0.01      0.02      0  01:55       0.000     0.000
  YSB1171                 0.45   1248.92      0  02:02       1.086     0.000
  
  
  **********************
  Storage Volume Summary
  **********************
  
  --------------------------------------------------------------------------------------------------
                         Average     Avg  Evap Exfil       Maximum     Max    Time of Max    Maximum
                          Volume    Pcnt  Pcnt  Pcnt        Volume    Pcnt     Occurrence    Outflow
  Storage Unit           1000 m3    Full  Loss  Loss       1000 m3    Full    days hr:min        LPS
  --------------------------------------------------------------------------------------------------
  CC-storage               2.530      39     0     0         5.337      83       0  02:35    1783.53
  JK-storage               0.073      25     0     0         0.213      73       0  01:59    2300.00
  XR-storage               0.946      66     0     0         1.111      77       0  08:00     380.00
  
  
  ***********************
  Outfall Loading Summary
  ***********************
  
  -----------------------------------------------------------
                         Flow       Avg       Max       Total
                         Freq      Flow      Flow      Volume
  Outfall Node           Pcnt       LPS       LPS    10^6 ltr
  -----------------------------------------------------------
  CC-1                  25.86    683.00    683.00       4.372
  CC-2                  21.80    683.00    683.00       3.755
  JK-1                   8.65   1000.00   1000.00       2.255
  JK-2                   8.43   1000.00   1000.00       2.050
  WSC                   99.96    675.46   1545.75      17.621
  -----------------------------------------------------------
  System                32.94   4041.46   4911.75      30.053
  
  
  ********************
  Link Flow Summary
  ********************
  
  -----------------------------------------------------------------------------
                                 Maximum  Time of Max   Maximum    Max/    Max/
                                  |Flow|   Occurrence   |Veloc|    Full    Full
  Link                 Type          LPS  days hr:min     m/sec    Flow   Depth
  -----------------------------------------------------------------------------
  1                    CONDUIT   1545.75     0  02:06      3.72    0.54    0.52
  HS02004478WS02006287 CONDUIT   2304.98     0  01:58      2.59    0.65    1.00
  HS02004479HS02004480 CONDUIT    395.68     0  01:52      0.57    0.38    1.00
  HS02004480HS02004478 CONDUIT   2063.67     0  01:51      2.95    8.69    1.00
  HS02004770HS02004777 CONDUIT    702.20     0  01:48      1.00    1.28    1.00
  HS02004777HS02004785 CONDUIT    709.61     0  01:48      1.07    0.87    1.00
  HS02004785HS02004788 CONDUIT    626.31     0  01:49      1.35    4.72    1.00
  HS02004788HS02004792 CONDUIT    892.77     0  02:01      1.45    0.59    1.00
  HS02004792HS02004799 CONDUIT   1563.95     0  01:49      2.23    0.96    1.00
  HS02004799HS02004480 CONDUIT   1714.24     0  01:50      2.45    2.17    1.00
  HS02004802HS02004478 CONDUIT   1233.89     0  02:07      1.76    1.09    1.00
  HS02004807HS02004802 CONDUIT   1233.17     0  02:07      1.76    2.35    1.00
  HS02004817HS02004807 CONDUIT   1197.02     0  02:04      1.71    0.71    1.00
  HS02004817HS02004824 CONDUIT   1196.41     0  02:05      1.71    0.54    1.00
  HS02004824HS02004830 CONDUIT    585.10     0  02:02      0.84    0.77    1.00
  HS02004830HS02004837 CONDUIT    584.87     0  02:02      0.87    0.58    1.00
  HS02004837HS02004842 CONDUIT    759.00     0  01:50      1.08    0.45    1.00
  HS02004842HS02004848 CONDUIT    758.88     0  01:50      1.19    0.44    1.00
  HS02004848HS02004852 CONDUIT    990.26     0  01:51      1.55    1.12    1.00
  HS02004852HS02004856 CONDUIT    946.24     0  01:51      1.44    1.08    1.00
  HS02004856HS02004862 CONDUIT   1019.55     0  01:51      1.65    1.02    1.00
  HS02004862HS02004870 CONDUIT   1040.21     0  02:08      1.69    1.12    1.00
  HS02004870HS02004876 CONDUIT   1258.59     0  02:07      1.80    0.84    1.00
  HS02004876HS02004881 CONDUIT   1515.45     0  02:06      2.16   16.12    1.00
  HS02004881HS02006253 CONDUIT   1670.99     0  02:01      2.39    0.33    1.00
  HS02004901HS02004770 CONDUIT    265.79     0  02:23      0.38    1.00    1.00
  WS02001211WS02001212 CONDUIT    210.84     0  03:18      0.54    0.16    0.70
  WS02001212WS02001213 CONDUIT    214.11     0  03:18      1.04    0.33    0.57
  WS02001213WS02003059 CONDUIT    218.48     0  03:19      0.47    0.36    0.91
  WS02003059WS02003060 CONDUIT    222.43     0  03:18      0.65    0.15    0.82
  WS02003060WS02003069 CONDUIT   1544.50     0  02:04      2.10    0.60    0.62
  WS02003066WSF200     CONDUIT   1347.90     0  02:01      3.27    0.23    0.39
  WS02003067WS02003066 CONDUIT   1347.28     0  02:01      2.04    0.43    0.57
  WS02003069WS02003072 CONDUIT   1544.59     0  02:05      1.91    0.74    0.67
  WS02003072WS02003073 CONDUIT   1544.43     0  02:05      2.07    3.34    0.63
  WS02004138WS02004139 CONDUIT    190.00     0  00:32      2.14    0.04    0.42
  WS02004139WS02001211 CONDUIT    197.29     0  03:18      0.55    0.25    0.62
  WS02004401WS02004402 CONDUIT   1343.76     0  02:01      1.71    1.61    1.00
  WS02004402WS02004403 CONDUIT   1344.53     0  02:01      1.71    1.93    1.00
  WS02004403WS02004404 CONDUIT   1344.97     0  02:01      1.71    0.97    1.00
  WS02004404WS02004405 CONDUIT   1344.66     0  02:01      1.71   13.17    1.00
  WS02004405WS02004406 CONDUIT   1344.50     0  02:01      1.71    2.65    1.00
  WS02004406WS02004407 CONDUIT   1344.29     0  02:01      1.71    0.60    1.00
  WS02004407WS02004409 CONDUIT   1344.45     0  02:01      1.91    0.48    1.00
  WS02004409WS02004410 CONDUIT   1344.58     0  02:01      1.71    1.74    1.00
  WS02004410WS02004411 CONDUIT   1344.77     0  02:01      1.71    1.84    1.00
  WS02004411WS02004412 CONDUIT   1344.75     0  02:01      1.71    1.91    1.00
  WS02004412WS02004413 CONDUIT   1345.04     0  02:01      1.71    0.90    1.00
  WS02004413WS02003067 CONDUIT   1344.82     0  02:01      2.07    0.58    0.77
  WS02006109WS02006110 CONDUIT   1124.95     0  02:28      2.24    2.16    1.00
  WS02006110WS02006113 CONDUIT   1125.02     0  02:28      2.24    1.02    1.00
  WS02006111WS02006112 CONDUIT   1125.30     0  02:28      2.24    0.54    1.00
  WS02006112WS02006115 CONDUIT   1342.80     0  02:01      1.71    0.79    1.00
  WS02006113WS02006111 CONDUIT   1125.11     0  02:28      2.74    1.35    1.00
  WS02006115WS02006116 CONDUIT   1343.15     0  02:01      1.71    1.72    1.00
  WS02006116WS02004401 CONDUIT   1343.90     0  02:01      1.71    1.85    1.00
  WS02006228WS02006109 CONDUIT   1288.28     0  01:58      2.56    5.63    1.00
  WS02006229WS02006228 CONDUIT   1288.60     0  01:58      2.56    4.27    1.00
  WS02006230WS02006229 CONDUIT   1016.18     0  01:58      2.64   22.61    1.00
  WS02006231WS02006230 CONDUIT    564.78     0  05:00      1.54    8.57    1.00
  WS02006232WS02006231 CONDUIT    575.66     0  05:00      1.50    1.21    1.00
  WS02006234WS02006232 CONDUIT    573.70     0  05:00      1.49    1.16    1.00
  WS02006235WS02006234 CONDUIT    563.56     0  05:00      1.46    5.95    1.00
  WS02006238WS02006235 CONDUIT    429.61     0  04:06      1.45    0.96    1.00
  WS02006239WS02006238 CONDUIT    428.75     0  04:06      1.12    1.37    1.00
  WS02006240WS02006239 CONDUIT    427.13     0  03:47      1.26    1.34    1.00
  WS02006242WS02006240 CONDUIT    427.00     0  03:47      1.14    1.70    1.00
  WS02006243WS02006242 CONDUIT    427.34     0  04:05      1.34    0.91    1.00
  WS02006245WS02006243 CONDUIT    428.65     0  04:05      1.39    1.27    1.00
  WS02006247WS02006245 CONDUIT    427.60     0  04:05      1.37    3.39    1.00
  WS02006248WS02006247 CONDUIT    426.90     0  04:05      1.38    0.93    1.00
  WS02006249WS02006248 CONDUIT    426.24     0  04:05      1.38    2.33    1.00
  WS02006251WS02006249 CONDUIT   1380.90     0  02:01      3.59    3.98    1.00
  WS02006252WS02006251 CONDUIT    404.73     0  02:45     19.82    1.49    1.00
  WS02006253WS02006251 CONDUIT   1715.60     0  02:01      4.46    5.14    1.00
  WS02006256WS02006235 CONDUIT    288.93     0  00:00      4.23    3.06    1.00
  WS02006280WS02006229 CONDUIT   2306.50     0  01:58      4.20    0.49    1.00
  WS02006284WS02006280 CONDUIT   2304.47     0  01:59      3.02    0.96    1.00
  WS02006287WS02006284 CONDUIT   2304.28     0  01:58      2.93    1.07    1.00
  WSF200WS02003060     CONDUIT   1349.58     0  02:02      2.32    0.30    0.51
  YS02001580YS02001583 CONDUIT     73.15     0  01:47      0.54    0.28    1.00
  YS02001583YS02001586 CONDUIT    124.23     0  01:47      0.51    0.19    1.00
  YS02001586YS02001590 CONDUIT    318.05     0  01:56      1.24    0.56    1.00
  YS02001590YS02001593 CONDUIT    318.08     0  01:56      1.12    2.00    1.00
  YS02001593YS02001596 CONDUIT    317.94     0  02:25      1.70    0.50    1.00
  YS02001596YS02001600 CONDUIT    317.97     0  02:05      1.26    0.62    1.00
  YS02001600YS02001601 CONDUIT    317.91     0  02:32      1.12    0.55    1.00
  YS02001601YS02001602 CONDUIT    498.63     0  01:46      1.76    1.80    1.00
  YS02001602YS02001605 CONDUIT    497.86     0  01:46      1.76   10.54    1.00
  YS02001605YS02001607 CONDUIT    497.29     0  01:46      1.76    2.73    1.00
  YS02001607YS02001610 CONDUIT    498.03     0  01:46      0.63    0.47    1.00
  YS02001610YS02001613 CONDUIT    613.94     0  02:04      0.78    0.71    1.00
  YS02001613YS02001616 CONDUIT    614.64     0  02:04      0.78    0.53    1.00
  YS02001616YS02001619 CONDUIT    614.16     0  02:04      0.78    1.07    1.00
  YS02001619YS02001622 CONDUIT   1053.65     0  02:04      1.34    1.55    1.00
  YS02001622YS02001625 CONDUIT   1053.58     0  02:04      1.34    0.56    1.00
  YS02001625YS02001629 CONDUIT    916.88     0  01:50      1.17    0.44    1.00
  YS02001629YS02163301 CONDUIT    917.78     0  01:50      1.17    1.13    1.00
  YS02001633YS02163601 CONDUIT   1317.37     0  01:50      1.68    1.38    1.00
  YS02001641YS02001644 CONDUIT   1315.75     0  01:50      1.68    4.25    1.00
  YS02001644YS02001647 CONDUIT   1681.43     0  01:51      2.17    0.99    1.00
  YS02001647YS02001649 CONDUIT   1680.66     0  01:51      2.31    0.89    1.00
  YS02001649YS02001757 CONDUIT   1849.79     0  01:51      2.46    1.12    1.00
  YS02001652YS02001649 CONDUIT   1087.92     0  02:01      1.39    0.54    1.00
  YS02001655YS02001652 CONDUIT   1087.30     0  02:01      1.38    0.53    1.00
  YS02001658YS02001655 CONDUIT   1087.42     0  02:01      1.82    0.46    1.00
  YS02001661YS02001658 CONDUIT   1087.38     0  02:01      2.20    0.43    1.00
  YS02001664YS02001661 CONDUIT   1087.28     0  02:01      2.14    0.34    0.85
  YS02001745YS02001748 CONDUIT    680.99     0  02:01      2.06    0.26    0.96
  YS02001748YS02001751 CONDUIT    681.88     0  02:01      1.63    0.34    1.00
  YS02001751YS02001754 CONDUIT    681.60     0  02:01      1.39    0.33    1.00
  YS02001754YS02001757 CONDUIT    682.11     0  02:01      0.87    0.27    1.00
  YS02001757CaochengTiaoxuchi CONDUIT   3107.09     0  02:00      3.96    1.34    1.00
  YS02001759YS02001757 CONDUIT   1336.38     0  02:00      1.70    0.95    1.00
  YS02001762YS02001759 CONDUIT    709.75     0  01:56      0.90    0.82    1.00
  YS02001765YS02001762 CONDUIT    701.94     0  01:56      0.89    0.66    1.00
  YS02001767YS02001765 CONDUIT    703.09     0  01:56      0.90    0.88    1.00
  YS02001770YS02001767 CONDUIT    704.69     0  01:56      0.90    2.79    1.00
  YS02001774YS02001770 CONDUIT    849.10     0  02:03      1.08    0.54    1.00
  YS02001779YS02001774 CONDUIT    849.28     0  02:03      1.08    0.43    1.00
  YS02001783YS02001784 CONDUIT   1168.47     0  01:59      2.32    1.61    1.00
  YS02001784YS02001785 CONDUIT   1169.92     0  02:00      2.33    2.72    1.00
  YS02001786YS02001788 CONDUIT   1170.17     0  02:00      2.49    2.25    0.89
  YS02001788YS02001790 CONDUIT   1177.97     0  01:58      2.72    0.87    0.84
  YS02001790YS02001791 CONDUIT   1293.59     0  02:01      3.41    1.41    0.71
  YS02001791YS02001793 CONDUIT   1256.34     0  02:01      6.80    0.54    0.45
  YS02001793JiankangQianchi CONDUIT   1262.41     0  02:00      2.53    0.10    0.65
  YS02001882YS02001884 CONDUIT     30.47     0  01:49      0.17    0.03    1.00
  YS02001884YS02001887 CONDUIT     38.89     0  01:47      0.13    0.05    1.00
  YS02001887YS02001890 CONDUIT   1000.32     0  02:01      1.27    1.71    1.00
  YS02001890YS02001895 CONDUIT    517.93     0  02:08      0.66    0.24    1.00
  YS02001895YS02001898 CONDUIT    517.69     0  02:05      0.66    0.90    1.00
  YS02001898YS02001901 CONDUIT    518.10     0  02:08      0.66    0.33    1.00
  YS02001901YS02001904 CONDUIT    517.91     0  02:08      0.66    0.80    1.00
  YS02001904YS02001907 CONDUIT    517.90     0  02:02      0.66    0.18    1.00
  YS02001907YS02006553 CONDUIT    794.93     0  02:24      0.88    0.94    1.00
  YS02001910YS02001907 CONDUIT   1778.14     0  02:02      2.26    1.00    1.00
  YS02001915YS02001910 CONDUIT   1778.15     0  02:02      2.26    0.88    1.00
  YS02001918YS02001915 CONDUIT    591.03     0  02:03      0.75    0.33    1.00
  YS02001920YS02001918 CONDUIT    591.03     0  02:03      0.75    0.57    1.00
  YS02001923YS02001920 CONDUIT    587.91     0  02:03      0.75    0.26    1.00
  YS02001926YS02001923 CONDUIT    587.37     0  02:02      0.94    0.84    1.00
  YS02001929YS02001926 CONDUIT    586.99     0  02:02      1.08    0.28    1.00
  YS02006553YS02006556 CONDUIT    794.59     0  02:24      1.01    0.68    1.00
  YS02006556YS02006558 CONDUIT    795.59     0  02:24      1.01    0.63    1.00
  YS02006558YS02006561 CONDUIT   1168.39     0  02:00      4.13    2.58    1.00
  YS02006561YS02001783 CONDUIT   1168.29     0  01:59      2.32    0.61    1.00
  YS02163301YS02001633 CONDUIT    917.89     0  01:50      1.17    0.86    1.00
  YS02163601YS02164001 CONDUIT   1316.66     0  01:50      1.68    1.17    1.00
  YS02164001YS02001641 CONDUIT   1315.01     0  01:50      1.67    1.80    1.00
  YSB1154YSB6556       CONDUIT    549.35     0  02:02      1.43    0.99    1.00
  YSB1171HS02004479    CONDUIT    394.56     0  01:52      0.78    0.26    1.00
  YSB1174YSB1171       CONDUIT    470.65     0  02:01      1.22    0.72    1.00
  YSB6556YSB1171       CONDUIT    549.44     0  02:02      1.43    0.57    1.00
  CC-R1                PUMP       683.00     0  00:00              1.00
  CC-R2                PUMP       683.00     0  00:00              1.00
  CC-S1                PUMP       200.00     0  00:00              1.00
  CC-S2                PUMP       200.00     0  00:00              1.00
  JK-R1                PUMP      1000.00     0  00:00              1.00
  JK-R2                PUMP      1000.00     0  00:00              1.00
  JK-S                 PUMP       300.00     0  00:00              1.00
  XR-1                 PUMP        95.00     0  00:00              1.00
  XR-2                 PUMP        95.00     0  00:00              1.00
  XR-3                 PUMP        95.00     0  00:00              1.00
  XR-4                 PUMP        95.00     0  00:00              1.00
  
  
  ***************************
  Flow Classification Summary
  ***************************
  
  -------------------------------------------------------------------------------------
                      Adjusted    ---------- Fraction of Time in Flow Class ---------- 
                       /Actual         Up    Down  Sub   Sup   Up    Down  Norm  Inlet 
  Conduit               Length    Dry  Dry   Dry   Crit  Crit  Crit  Crit  Ltd   Ctrl  
  -------------------------------------------------------------------------------------
  1                       1.00   0.00  0.00  0.00  0.00  1.00  0.00  0.00  0.44  0.00
  HS02004478WS02006287    1.00   0.12  0.00  0.00  0.64  0.23  0.00  0.00  0.58  0.00
  HS02004479HS02004480    1.00   0.03  0.00  0.00  0.97  0.00  0.00  0.00  0.11  0.00
  HS02004480HS02004478    1.00   0.12  0.00  0.00  0.60  0.00  0.00  0.28  0.00  0.00
  HS02004770HS02004777    1.00   0.00  0.11  0.00  0.89  0.00  0.00  0.00  0.02  0.00
  HS02004777HS02004785    1.00   0.00  0.00  0.00  1.00  0.00  0.00  0.00  0.11  0.00
  HS02004785HS02004788    1.00   0.00  0.00  0.00  1.00  0.00  0.00  0.00  0.00  0.00
  HS02004788HS02004792    1.00   0.00  0.00  0.00  0.99  0.01  0.00  0.00  0.87  0.00
  HS02004792HS02004799    1.00   0.00  0.00  0.00  0.99  0.01  0.00  0.00  0.80  0.00
  HS02004799HS02004480    1.00   0.00  0.03  0.00  0.88  0.00  0.10  0.00  0.00  0.00
  HS02004802HS02004478    1.00   0.12  0.00  0.00  0.88  0.00  0.00  0.00  0.02  0.00
  HS02004807HS02004802    1.00   0.11  0.00  0.00  0.88  0.00  0.00  0.01  0.00  0.00
  HS02004817HS02004807    1.00   0.00  0.11  0.00  0.89  0.00  0.00  0.00  0.01  0.00
  HS02004817HS02004824    1.00   0.00  0.00  0.00  1.00  0.00  0.00  0.00  0.78  0.00
  HS02004824HS02004830    1.00   0.00  0.00  0.00  1.00  0.00  0.00  0.00  0.01  0.00
  HS02004830HS02004837    1.00   0.00  0.00  0.00  1.00  0.00  0.00  0.00  0.83  0.00
  HS02004837HS02004842    1.00   0.00  0.00  0.00  1.00  0.00  0.00  0.00  0.11  0.00
  HS02004842HS02004848    1.00   0.00  0.11  0.00  0.89  0.00  0.00  0.00  0.53  0.00
  HS02004848HS02004852    1.00   0.11  0.00  0.00  0.89  0.00  0.00  0.00  0.68  0.00
  HS02004852HS02004856    1.00   0.11  0.00  0.00  0.88  0.00  0.00  0.00  0.64  0.00
  HS02004856HS02004862    1.00   0.00  0.12  0.00  0.88  0.00  0.00  0.00  0.71  0.00
  HS02004862HS02004870    1.00   0.00  0.00  0.00  1.00  0.00  0.00  0.00  0.02  0.00
  HS02004870HS02004876    1.00   0.00  0.00  0.00  0.99  0.01  0.00  0.00  0.82  0.00
  HS02004876HS02004881    1.00   0.01  0.00  0.00  0.79  0.20  0.00  0.00  0.00  0.00
  HS02004881HS02006253    1.00   0.01  0.05  0.00  0.69  0.01  0.00  0.25  0.39  0.00
  HS02004901HS02004770    1.00   0.11  0.00  0.00  0.89  0.00  0.00  0.00  0.00  0.00
  WS02001211WS02001212    1.00   0.00  0.02  0.00  0.98  0.00  0.00  0.00  0.00  0.00
  WS02001212WS02001213    1.00   0.02  0.00  0.00  0.66  0.00  0.32  0.00  0.00  0.00
  WS02001213WS02003059    1.00   0.00  0.00  0.00  1.00  0.00  0.00  0.00  0.00  0.00
  WS02003059WS02003060    1.00   0.00  0.00  0.00  1.00  0.00  0.00  0.00  0.03  0.00
  WS02003060WS02003069    1.00   0.00  0.00  0.00  0.96  0.04  0.00  0.00  0.38  0.00
  WS02003066WSF200        1.00   0.08  0.00  0.00  0.00  0.92  0.00  0.00  0.59  0.00
  WS02003067WS02003066    1.00   0.07  0.00  0.00  0.92  0.00  0.00  0.00  0.00  0.00
  WS02003069WS02003072    1.00   0.00  0.00  0.00  1.00  0.00  0.00  0.00  0.41  0.00
  WS02003072WS02003073    1.00   0.00  0.00  0.00  0.00  0.00  0.00  1.00  0.00  0.00
  WS02004138WS02004139    1.00   0.00  0.00  0.00  0.98  0.00  0.00  0.01  0.98  0.00
  WS02004139WS02001211    1.00   0.00  0.00  0.00  1.00  0.00  0.00  0.00  0.00  0.00
  WS02004401WS02004402    1.00   0.02  0.00  0.00  0.98  0.00  0.00  0.00  0.00  0.00
  WS02004402WS02004403    1.00   0.02  0.00  0.00  0.98  0.00  0.00  0.00  0.00  0.00
  WS02004403WS02004404    1.00   0.00  0.02  0.00  0.98  0.00  0.00  0.00  0.00  0.00
  WS02004404WS02004405    1.00   0.00  0.00  0.00  1.00  0.00  0.00  0.00  0.01  0.00
  WS02004405WS02004406    1.00   0.00  0.00  0.00  1.00  0.00  0.00  0.00  0.00  0.00
  WS02004406WS02004407    1.00   0.00  0.04  0.00  0.96  0.00  0.00  0.00  0.00  0.00
  WS02004407WS02004409    1.00   0.04  0.00  0.00  0.93  0.03  0.00  0.00  0.77  0.00
  WS02004409WS02004410    1.00   0.04  0.00  0.00  0.96  0.00  0.00  0.00  0.00  0.00
  WS02004410WS02004411    1.00   0.04  0.00  0.00  0.95  0.00  0.00  0.00  0.00  0.00
  WS02004411WS02004412    1.00   0.05  0.00  0.00  0.95  0.00  0.00  0.00  0.00  0.00
  WS02004412WS02004413    1.00   0.05  0.00  0.00  0.94  0.01  0.00  0.00  0.00  0.00
  WS02004413WS02003067    1.00   0.05  0.02  0.00  0.00  0.00  0.93  0.00  0.00  0.00
  WS02006109WS02006110    1.00   0.00  0.01  0.00  0.99  0.00  0.01  0.00  0.00  0.00
  WS02006110WS02006113    1.00   0.01  0.01  0.00  0.99  0.00  0.00  0.00  0.00  0.00
  WS02006111WS02006112    1.00   0.01  0.00  0.00  0.98  0.00  0.00  0.00  0.72  0.00
  WS02006112WS02006115    1.00   0.01  0.00  0.00  0.98  0.00  0.00  0.00  0.00  0.00
  WS02006113WS02006111    1.00   0.01  0.00  0.00  0.26  0.73  0.00  0.00  0.13  0.00
  WS02006115WS02006116    1.00   0.02  0.00  0.00  0.98  0.00  0.00  0.01  0.00  0.00
  WS02006116WS02004401    1.00   0.02  0.00  0.00  0.98  0.00  0.00  0.00  0.00  0.00
  WS02006228WS02006109    1.00   0.00  0.00  0.00  1.00  0.00  0.00  0.00  0.01  0.00
  WS02006229WS02006228    1.00   0.00  0.00  0.00  0.99  0.00  0.00  0.00  0.00  0.00
  WS02006230WS02006229    1.00   0.00  0.00  0.00  0.99  0.00  0.00  0.01  0.02  0.00
  WS02006231WS02006230    1.00   0.00  0.00  0.00  0.66  0.00  0.34  0.00  0.00  0.00
  WS02006232WS02006231    1.00   0.00  0.00  0.00  1.00  0.00  0.00  0.00  0.00  0.00
  WS02006234WS02006232    1.00   0.00  0.00  0.00  1.00  0.00  0.00  0.00  0.01  0.00
  WS02006235WS02006234    1.00   0.00  0.00  0.00  0.98  0.00  0.02  0.00  0.00  0.00
  WS02006238WS02006235    1.00   0.00  0.00  0.00  1.00  0.00  0.00  0.00  0.00  0.00
  WS02006239WS02006238    1.00   0.00  0.00  0.00  1.00  0.00  0.00  0.00  0.04  0.00
  WS02006240WS02006239    1.00   0.00  0.00  0.00  0.86  0.00  0.00  0.14  0.02  0.00
  WS02006242WS02006240    1.00   0.00  0.00  0.00  0.99  0.00  0.01  0.00  0.00  0.00
  WS02006243WS02006242    1.00   0.00  0.00  0.00  1.00  0.00  0.00  0.00  0.39  0.00
  WS02006245WS02006243    1.00   0.00  0.00  0.00  0.94  0.00  0.00  0.06  0.00  0.00
  WS02006247WS02006245    1.00   0.00  0.00  0.00  0.99  0.00  0.00  0.01  0.00  0.00
  WS02006248WS02006247    1.00   0.00  0.00  0.00  1.00  0.00  0.00  0.00  0.37  0.00
  WS02006249WS02006248    1.00   0.00  0.00  0.00  0.79  0.00  0.21  0.00  0.00  0.00
  WS02006251WS02006249    1.00   0.00  0.00  0.00  1.00  0.00  0.00  0.00  0.35  0.00
  WS02006252WS02006251    1.00   0.01  0.17  0.00  0.37  0.00  0.46  0.00  0.00  0.00
  WS02006253WS02006251    1.00   0.00  0.00  0.00  0.99  0.00  0.01  0.00  0.02  0.00
  WS02006256WS02006235    1.00   0.00  0.00  0.00  0.99  0.01  0.00  0.00  0.00  0.00
  WS02006280WS02006229    1.00   0.12  0.00  0.00  0.22  0.03  0.00  0.63  0.00  0.00
  WS02006284WS02006280    1.00   0.12  0.00  0.00  0.17  0.01  0.00  0.70  0.00  0.00
  WS02006287WS02006284    1.00   0.10  0.02  0.00  0.55  0.32  0.00  0.00  0.64  0.00
  WSF200WS02003060        1.00   0.00  0.08  0.00  0.39  0.53  0.00  0.00  0.40  0.00
  YS02001580YS02001583    1.00   0.23  0.48  0.00  0.28  0.00  0.00  0.00  0.63  0.00
  YS02001583YS02001586    1.00   0.25  0.42  0.00  0.33  0.00  0.00  0.00  0.63  0.00
  YS02001586YS02001590    1.00   0.11  0.00  0.00  0.61  0.04  0.00  0.23  0.34  0.00
  YS02001590YS02001593    1.00   0.11  0.00  0.00  0.20  0.00  0.69  0.00  0.00  0.00
  YS02001593YS02001596    1.00   0.12  0.00  0.00  0.22  0.01  0.00  0.66  0.02  0.00
  YS02001596YS02001600    1.00   0.12  0.00  0.00  0.30  0.02  0.00  0.57  0.04  0.00
  YS02001600YS02001601    1.00   0.11  0.00  0.00  0.88  0.00  0.00  0.00  0.58  0.00
  YS02001601YS02001602    1.00   0.11  0.00  0.00  0.88  0.00  0.00  0.00  0.00  0.00
  YS02001602YS02001605    1.00   0.12  0.00  0.00  0.88  0.00  0.00  0.00  0.00  0.00
  YS02001605YS02001607    1.00   0.12  0.00  0.00  0.88  0.00  0.00  0.00  0.00  0.00
  YS02001607YS02001610    1.00   0.12  0.00  0.00  0.88  0.00  0.00  0.00  0.01  0.00
  YS02001610YS02001613    1.00   0.11  0.00  0.00  0.89  0.00  0.00  0.00  0.00  0.00
  YS02001613YS02001616    1.00   0.11  0.00  0.00  0.89  0.00  0.00  0.00  0.00  0.00
  YS02001616YS02001619    1.00   0.11  0.00  0.00  0.89  0.00  0.00  0.00  0.00  0.00
  YS02001619YS02001622    1.00   0.11  0.00  0.00  0.89  0.00  0.00  0.00  0.27  0.00
  YS02001622YS02001625    1.00   0.11  0.00  0.00  0.89  0.00  0.00  0.00  0.03  0.00
  YS02001625YS02001629    1.00   0.11  0.02  0.00  0.25  0.00  0.62  0.00  0.00  0.00
  YS02001629YS02163301    1.00   0.12  0.00  0.00  0.88  0.00  0.00  0.00  0.00  0.00
  YS02001633YS02163601    1.00   0.00  0.00  0.00  1.00  0.00  0.00  0.00  0.14  0.00
  YS02001641YS02001644    1.00   0.00  0.00  0.00  1.00  0.00  0.00  0.00  0.00  0.00
  YS02001644YS02001647    1.00   0.00  0.13  0.00  0.87  0.00  0.00  0.00  0.00  0.00
  YS02001647YS02001649    1.00   0.00  0.13  0.00  0.54  0.33  0.00  0.00  0.55  0.00
  YS02001649YS02001757    1.00   0.00  0.00  0.00  0.71  0.29  0.00  0.00  0.37  0.00
  YS02001652YS02001649    1.00   0.00  0.00  0.00  0.98  0.02  0.00  0.00  0.70  0.00
  YS02001655YS02001652    1.00   0.00  0.00  0.00  0.29  0.01  0.00  0.70  0.05  0.00
  YS02001658YS02001655    1.00   0.00  0.12  0.00  0.68  0.20  0.00  0.00  0.61  0.00
  YS02001661YS02001658    1.00   0.12  0.00  0.00  0.45  0.43  0.00  0.00  0.64  0.00
  YS02001664YS02001661    1.00   0.11  0.00  0.00  0.76  0.13  0.00  0.00  0.83  0.00
  YS02001745YS02001748    1.00   0.00  0.00  0.00  0.18  0.00  0.00  0.81  0.04  0.00
  YS02001748YS02001751    1.00   0.00  0.00  0.00  0.83  0.17  0.00  0.00  0.72  0.00
  YS02001751YS02001754    1.00   0.00  0.00  0.00  0.27  0.01  0.00  0.72  0.04  0.00
  YS02001754YS02001757    1.00   0.00  0.00  0.00  1.00  0.00  0.00  0.00  0.76  0.00
  YS02001757CaochengTiaoxuchi    1.00   0.00  0.00  0.00  0.97  0.03  0.00  0.00  0.63  0.00
  YS02001759YS02001757    1.00   0.00  0.00  0.00  0.99  0.01  0.00  0.00  0.54  0.00
  YS02001762YS02001759    1.00   0.00  0.00  0.00  1.00  0.00  0.00  0.00  0.03  0.00
  YS02001765YS02001762    1.00   0.00  0.00  0.00  1.00  0.00  0.00  0.00  0.63  0.00
  YS02001767YS02001765    1.00   0.00  0.00  0.00  1.00  0.00  0.00  0.00  0.01  0.00
  YS02001770YS02001767    1.00   0.00  0.00  0.00  1.00  0.00  0.00  0.00  0.00  0.00
  YS02001774YS02001770    1.00   0.00  0.11  0.00  0.80  0.00  0.08  0.00  0.02  0.00
  YS02001779YS02001774    1.00   0.00  0.00  0.00  1.00  0.00  0.00  0.00  0.72  0.00
  YS02001783YS02001784    1.00   0.00  0.13  0.00  0.87  0.00  0.00  0.00  0.54  0.00
  YS02001784YS02001785    1.00   0.00  0.00  0.00  1.00  0.00  0.00  0.00  0.15  0.00
  YS02001786YS02001788    1.00   0.00  0.00  0.00  0.72  0.28  0.00  0.00  0.00  0.00
  YS02001788YS02001790    1.00   0.00  0.00  0.00  0.19  0.81  0.00  0.00  0.78  0.00
  YS02001790YS02001791    1.00   0.00  0.00  0.00  0.01  0.99  0.00  0.00  0.16  0.00
  YS02001791YS02001793    1.00   0.00  0.00  0.00  0.00  1.00  0.00  0.00  0.01  0.00
  YS02001793JiankangQianchi    1.00   0.00  0.00  0.00  0.95  0.05  0.00  0.00  0.95  0.00
  YS02001882YS02001884    1.00   0.12  0.00  0.00  0.88  0.00  0.00  0.00  0.00  0.00
  YS02001884YS02001887    1.00   0.08  0.03  0.00  0.89  0.00  0.00  0.00  0.00  0.00
  YS02001887YS02001890    1.00   0.00  0.00  0.00  0.98  0.00  0.02  0.00  0.00  0.00
  YS02001890YS02001895    1.00   0.00  0.12  0.00  0.88  0.00  0.00  0.00  0.00  0.00
  YS02001895YS02001898    1.00   0.12  0.00  0.00  0.86  0.00  0.02  0.00  0.00  0.00
  YS02001898YS02001901    1.00   0.12  0.00  0.00  0.88  0.00  0.00  0.00  0.01  0.00
  YS02001901YS02001904    1.00   0.12  0.00  0.00  0.88  0.00  0.00  0.00  0.00  0.00
  YS02001904YS02001907    1.00   0.00  0.12  0.00  0.88  0.00  0.00  0.00  0.00  0.00
  YS02001907YS02006553    1.00   0.00  0.01  0.00  0.98  0.00  0.00  0.00  0.00  0.00
  YS02001910YS02001907    1.00   0.00  0.00  0.00  0.98  0.00  0.00  0.02  0.12  0.00
  YS02001915YS02001910    1.00   0.00  0.00  0.00  0.98  0.02  0.00  0.00  0.13  0.00
  YS02001918YS02001915    1.00   0.00  0.00  0.00  0.98  0.01  0.00  0.00  0.70  0.00
  YS02001920YS02001918    1.00   0.00  0.00  0.00  1.00  0.00  0.00  0.00  0.00  0.00
  YS02001923YS02001920    1.00   0.00  0.00  0.00  1.00  0.00  0.00  0.00  0.89  0.00
  YS02001926YS02001923    1.00   0.00  0.09  0.00  0.09  0.00  0.82  0.00  0.00  0.00
  YS02001929YS02001926    1.00   0.00  0.11  0.00  0.89  0.00  0.00  0.00  0.80  0.00
  YS02006553YS02006556    1.00   0.01  0.00  0.00  0.99  0.00  0.00  0.00  0.03  0.00
  YS02006556YS02006558    1.00   0.00  0.00  0.00  1.00  0.00  0.00  0.00  0.00  0.00
  YS02006558YS02006561    1.00   0.13  0.00  0.00  0.09  0.78  0.00  0.00  0.16  0.00
  YS02006561YS02001783    1.00   0.13  0.00  0.00  0.13  0.73  0.00  0.00  0.65  0.00
  YS02163301YS02001633    1.00   0.00  0.12  0.00  0.88  0.00  0.00  0.00  0.00  0.00
  YS02163601YS02164001    1.00   0.00  0.09  0.00  0.91  0.00  0.00  0.00  0.00  0.00
  YS02164001YS02001641    1.00   0.00  0.09  0.00  0.91  0.00  0.00  0.00  0.05  0.00
  YSB1154YSB6556          1.00   0.11  0.00  0.00  0.89  0.00  0.00  0.00  0.01  0.00
  YSB1171HS02004479       1.00   0.03  0.00  0.00  0.93  0.01  0.00  0.03  0.09  0.00
  YSB1174YSB1171          1.00   0.06  0.04  0.00  0.90  0.00  0.00  0.00  0.00  0.00
  YSB6556YSB1171          1.00   0.03  0.08  0.00  0.89  0.00  0.00  0.00  0.00  0.00
  
  
  *************************
  Conduit Surcharge Summary
  *************************
  
  ----------------------------------------------------------------------------
                                                           Hours        Hours 
                         --------- Hours Full --------   Above Full   Capacity
  Conduit                Both Ends  Upstream  Dnstream   Normal Flow   Limited
  ----------------------------------------------------------------------------
  HS02004478WS02006287        0.73      0.73      0.95      0.01         0.01
  HS02004479HS02004480        0.94      0.94      0.97      0.01         0.01
  HS02004480HS02004478        0.86      0.94      0.86      1.92         0.86
  HS02004770HS02004777        0.82      0.82      0.83      0.14         0.09
  HS02004777HS02004785        0.76      0.76      0.83      0.01         0.01
  HS02004785HS02004788        0.75      0.76      0.75      1.68         0.65
  HS02004788HS02004792        0.75      0.75      0.90      0.01         0.01
  HS02004792HS02004799        0.90      0.90      1.06      0.01         0.01
  HS02004799HS02004480        0.94      0.94      1.06      1.21         0.01
  HS02004802HS02004478        0.88      0.88      0.96      0.23         0.01
  HS02004807HS02004802        0.93      0.93      0.95      0.42         0.43
  HS02004817HS02004807        0.93      0.93      1.60      0.01         0.01
  HS02004817HS02004824        0.75      0.75      1.60      0.01         0.01
  HS02004824HS02004830        0.72      0.72      0.75      0.01         0.01
  HS02004830HS02004837        0.67      0.67      0.72      0.01         0.01
  HS02004837HS02004842        0.67      0.67      0.84      0.01         0.01
  HS02004842HS02004848        0.63      0.63      0.84      0.01         0.01
  HS02004848HS02004852        0.63      0.63      0.66      0.02         0.01
  HS02004852HS02004856        0.66      0.66      0.69      0.01         0.01
  HS02004856HS02004862        0.65      0.65      0.69      0.01         0.01
  HS02004862HS02004870        0.69      0.69      0.72      0.28         0.28
  HS02004870HS02004876        0.72      0.72      0.81      0.01         0.01
  HS02004876HS02004881        0.79      0.81      0.79      1.76         0.79
  HS02004881HS02006253        0.79      0.79      2.65      0.01         0.01
  HS02004901HS02004770        0.82      0.82      0.82      0.14         0.01
  WS02003072WS02003073        0.01      0.01      0.01      4.22         0.01
  WS02004401WS02004402        1.84      1.84      1.87      1.70         1.69
  WS02004402WS02004403        1.87      1.87      1.88      1.83         1.82
  WS02004403WS02004404        1.88      1.88      2.06      0.01         0.04
  WS02004404WS02004405        2.03      2.06      2.03      4.89         2.02
  WS02004405WS02004406        1.98      2.03      1.98      2.50         1.98
  WS02004406WS02004407        0.01      0.01      1.98      0.01         0.01
  WS02004407WS02004409        0.01      0.01      1.42      0.01         0.01
  WS02004409WS02004410        1.34      1.42      1.34      1.74         1.34
  WS02004410WS02004411        1.25      1.34      1.25      1.79         1.25
  WS02004411WS02004412        1.12      1.25      1.12      1.82         1.12
  WS02004412WS02004413        1.12      1.12      1.61      0.01         0.01
  WS02004413WS02003067        0.01      0.01      1.61      0.01         0.01
  WS02006109WS02006110        2.37      2.37      3.36      2.39         0.01
  WS02006110WS02006113        1.59      1.59      3.26      0.40         0.01
  WS02006111WS02006112        1.58      1.58      4.08      0.01         0.01
  WS02006112WS02006115        1.74      1.74      2.63      0.01         0.01
  WS02006113WS02006111        1.59      1.59      1.59      1.71         1.59
  WS02006115WS02006116        1.75      1.75      1.76      1.73         1.71
  WS02006116WS02004401        1.83      1.83      1.84      1.80         1.78
  WS02006228WS02006109        3.13      3.38      3.13      4.40         3.13
  WS02006229WS02006228        3.09      3.20      3.09      3.98         3.08
  WS02006230WS02006229        3.60      3.84      3.60      5.02         2.10
  WS02006231WS02006230        2.16      2.16      2.47      4.70         1.46
  WS02006232WS02006231        2.38      2.38      3.19      0.07         0.20
  WS02006234WS02006232        2.84      2.84      3.19      0.06         0.08
  WS02006235WS02006234        2.78      2.79      2.92      4.52         1.41
  WS02006238WS02006235        2.97      2.97      3.18      0.01         0.52
  WS02006239WS02006238        3.03      3.11      3.04      3.06         1.21
  WS02006240WS02006239        2.94      2.99      2.94      3.00         1.12
  WS02006242WS02006240        2.96      2.96      3.39      3.49         1.26
  WS02006243WS02006242        3.01      3.01      3.24      0.01         0.04
  WS02006245WS02006243        2.96      2.99      2.97      1.74         1.13
  WS02006247WS02006245        2.96      3.05      2.96      4.20         1.44
  WS02006248WS02006247        2.95      2.95      3.02      0.01         0.05
  WS02006249WS02006248        2.92      2.92      2.99      2.73         0.01
  WS02006251WS02006249        2.97      2.99      2.99      3.45         2.80
  WS02006252WS02006251        3.69      3.70      3.75      3.06         0.14
  WS02006253WS02006251        2.97      2.97      3.03      1.11         0.02
  WS02006256WS02006235        4.70      4.75      7.74      0.37         0.01
  WS02006280WS02006229        1.13      1.13      1.29      0.01         0.01
  WS02006284WS02006280        0.98      0.98      1.10      0.01         0.01
  WS02006287WS02006284        0.85      0.85      0.99      0.47         0.48
  YS02001580YS02001583        0.90      0.90      0.99      0.01         0.01
  YS02001583YS02001586        0.91      0.91      1.11      0.01         0.01
  YS02001586YS02001590        1.12      1.12      1.21      0.01         0.01
  YS02001590YS02001593        1.21      1.21      1.24      1.24         0.01
  YS02001593YS02001596        1.23      1.23      1.36      0.01         0.01
  YS02001596YS02001600        1.41      1.41      1.49      0.01         0.01
  YS02001600YS02001601        1.54      1.54      1.77      0.01         0.01
  YS02001601YS02001602        1.69      1.69      1.81      1.49         0.01
  YS02001602YS02001605        1.65      1.65      1.69      2.50         0.01
  YS02001605YS02001607        1.61      1.65      1.61      1.71         1.59
  YS02001607YS02001610        1.24      1.24      1.27      0.01         0.01
  YS02001610YS02001613        1.24      1.24      1.27      0.01         0.01
  YS02001613YS02001616        1.19      1.19      1.24      0.01         0.01
  YS02001616YS02001619        1.17      1.17      1.19      0.07         0.10
  YS02001619YS02001622        1.17      1.17      1.17      1.14         1.03
  YS02001622YS02001625        1.17      1.17      1.35      0.01         0.01
  YS02001625YS02001629        1.08      1.08      1.35      0.01         0.01
  YS02001629YS02163301        1.35      1.35      1.37      0.09         0.12
  YS02001633YS02163601        1.39      1.39      1.43      0.18         0.23
  YS02001641YS02001644        1.32      1.34      1.32      1.84         1.29
  YS02001644YS02001647        1.11      1.11      1.32      0.01         0.01
  YS02001647YS02001649        1.11      1.11      1.23      0.01         0.01
  YS02001649YS02001757        1.23      1.23      1.30      0.11         0.05
  YS02001652YS02001649        1.06      1.06      1.23      0.01         0.01
  YS02001655YS02001652        0.82      0.82      1.03      0.01         0.01
  YS02001658YS02001655        0.45      0.45      0.82      0.01         0.01
  YS02001661YS02001658        0.12      0.12      0.45      0.01         0.01
  YS02001664YS02001661        0.01      0.01      0.18      0.01         0.01
  YS02001745YS02001748        0.01      0.01      0.34      0.01         0.01
  YS02001748YS02001751        0.40      0.40      0.66      0.01         0.01
  YS02001751YS02001754        0.66      0.66      0.95      0.01         0.01
  YS02001754YS02001757        1.00      1.00      1.30      0.01         0.01
  YS02001757CaochengTiaoxuchi        1.30      1.30      2.18      0.46         0.44
  YS02001759YS02001757        1.22      1.22      1.30      0.01         0.01
  YS02001762YS02001759        1.19      1.19      1.22      0.01         0.02
  YS02001765YS02001762        1.16      1.16      1.19      0.01         0.01
  YS02001767YS02001765        1.13      1.13      1.16      0.01         0.02
  YS02001770YS02001767        1.12      1.12      1.13      0.76         0.66
  YS02001774YS02001770        1.09      1.09      1.18      0.01         0.01
  YS02001779YS02001774        0.93      0.93      1.18      0.01         0.01
  YS02001783YS02001784        0.73      0.77      0.73      0.97         0.73
  YS02001784YS02001785        0.60      0.73      0.60      1.33         0.60
  YS02001786YS02001788        0.01      0.60      0.01      1.11         0.01
  YS02001790YS02001791        0.01      0.01      0.01      0.71         0.01
  YS02001793JiankangQianchi        0.01      0.01      6.38      0.01         0.01
  YS02001882YS02001884        0.69      0.69      0.70      0.01         0.01
  YS02001884YS02001887        0.73      0.73      0.75      0.01         0.01
  YS02001887YS02001890        0.77      0.77      0.79      0.19         0.01
  YS02001890YS02001895        0.68      0.68      0.81      0.01         0.01
  YS02001895YS02001898        0.67      0.67      0.68      0.01         0.01
  YS02001898YS02001901        0.68      0.68      0.73      0.01         0.01
  YS02001901YS02001904        0.72      0.72      0.73      0.01         0.01
  YS02001904YS02001907        0.72      0.72      1.09      0.01         0.01
  YS02001907YS02006553        1.33      1.33      1.43      0.01         0.01
  YS02001910YS02001907        0.80      0.80      1.06      0.01         0.02
  YS02001915YS02001910        0.69      0.69      0.80      0.01         0.01
  YS02001918YS02001915        0.58      0.58      0.69      0.01         0.01
  YS02001920YS02001918        0.58      0.58      0.60      0.01         0.01
  YS02001923YS02001920        0.53      0.53      0.60      0.01         0.01
  YS02001926YS02001923        0.20      0.20      0.25      0.01         0.01
  YS02001929YS02001926        0.06      0.06      0.25      0.01         0.01
  YS02006553YS02006556        0.93      0.93      1.09      0.01         0.01
  YS02006556YS02006558        1.01      1.01      1.12      0.01         0.01
  YS02006558YS02006561        0.62      0.91      0.62      1.25         0.62
  YS02006561YS02001783        0.54      0.54      0.77      0.01         0.01
  YS02163301YS02001633        1.37      1.37      1.41      0.01         0.01
  YS02163601YS02164001        1.34      1.34      1.43      0.10         0.01
  YS02164001YS02001641        1.34      1.34      1.34      0.84         0.78
  YSB1154YSB6556              1.02      1.02      1.25      0.01         0.01
  YSB1171HS02004479           0.89      0.89      1.26      0.01         0.01
  YSB1174YSB1171              1.12      1.12      1.54      0.01         0.01
  YSB6556YSB1171              1.02      1.02      1.65      0.01         0.01
  
  
  ***************
  Pumping Summary
  ***************
  
  ---------------------------------------------------------------------------------------------------------
                                                  Min       Avg       Max     Total     Power    % Time Off
                        Percent   Number of      Flow      Flow      Flow    Volume     Usage    Pump Curve
  Pump                 Utilized   Start-Ups       LPS       LPS       LPS  10^6 ltr     Kw-hr    Low   High
  ---------------------------------------------------------------------------------------------------------
  CC-R1                   22.24           6      0.00    683.00    683.00     4.374     84.68    0.0    5.0
  CC-R2                   19.09           3      0.00    683.00    683.00     3.754     73.34    0.0    5.5
  CC-S1                   48.65          25      0.00    200.00    200.00     2.802     18.20    0.0    0.0
  CC-S2                   48.47          21      0.00    200.00    200.00     2.792     18.36    0.0    0.0
  JK-R1                    7.84          24      0.00   1000.00   1000.00     2.259     21.99    0.0    0.0
  JK-R2                    7.12          23      0.00   1000.00   1000.00     2.051     19.13    0.0    0.0
  JK-S                    11.42          38      0.00    300.00    300.00     0.987     16.49    0.0    0.0
  XR-1                    97.91           2      0.00     95.00     95.00     2.679      9.64    0.0    0.0
  XR-2                    93.95           2      0.00     95.00     95.00     2.571      8.80    0.0    0.0
  XR-3                     0.00           1      0.00     95.00     95.00     0.000      0.00    0.0    0.0
  XR-4                     0.00           1      0.00     95.00     95.00     0.000      0.00    0.0    0.0
  

  Analysis begun on:  Mon Feb 27 13:40:28 2023
  Analysis ended on:  Mon Feb 27 13:40:32 2023
  Total elapsed time: 00:00:04