
  OWA STORM WATER MANAGEMENT MODEL - VERSION v5.1.14 (OWA 2023-01-25)
  --------------------------------------------------------------

  WARNING 04: minimum elevation drop used for Conduit WS02004404WS02004405
  WARNING 03: negative offset ignored for Link YS02001904YS02001907
  
  *********************************************************
  NOTE: The summary statistics displayed in this report are
  based on results found at every computational time step,  
  not just on results from each reporting time step.
  *********************************************************
  
  ****************
  Analysis Options
  ****************
  Flow Units ............... LPS
  Process Models:
    Rainfall/Runoff ........ YES
    RDII ................... NO
    Snowmelt ............... NO
    Groundwater ............ NO
    Flow Routing ........... YES
    Ponding Allowed ........ NO
    Water Quality .......... NO
  Infiltration Method ...... HORTON
  Flow Routing Method ...... DYNWAVE
  Surcharge Method ......... EXTRAN
  Starting Date ............ 08/28/2015 08:00:00
  Ending Date .............. 08/28/2015 16:00:00
  Antecedent Dry Days ...... 8.0
  Report Time Step ......... 00:01:00
  Wet Time Step ............ 00:01:00
  Dry Time Step ............ 00:01:00
  Routing Time Step ........ 30.00 sec
  Variable Time Step ....... YES
  Maximum Trials ........... 8
  Number of Threads ........ 4
  Head Tolerance ........... 0.001500 m
  
  
  **************************        Volume         Depth
  Runoff Quantity Continuity     hectare-m            mm
  **************************     ---------       -------
  Total Precipitation ......         2.717        44.855
  Evaporation Loss .........         0.000         0.000
  Infiltration Loss ........         0.228         3.761
  Surface Runoff ...........         2.429        40.098
  Final Storage ............         0.061         1.005
  Continuity Error (%) .....        -0.021
  
  
  **************************        Volume        Volume
  Flow Routing Continuity        hectare-m      10^6 ltr
  **************************     ---------     ---------
  Dry Weather Inflow .......         0.630         6.296
  Wet Weather Inflow .......         2.429        24.292
  Groundwater Inflow .......         0.000         0.000
  RDII Inflow ..............         0.000         0.000
  External Inflow ..........         0.105         1.045
  External Outflow .........         2.246        22.461
  Flooding Loss ............         0.911         9.109
  Evaporation Loss .........         0.000         0.000
  Exfiltration Loss ........         0.000         0.000
  Initial Stored Volume ....         0.303         3.031
  Final Stored Volume ......         0.322         3.221
  Continuity Error (%) .....        -0.366
  
  
  *************************
  Highest Continuity Errors
  *************************
  Node YS02001583 (-10.74%)
  Node YS02001884 (5.20%)
  Node HS02004842 (1.81%)
  Node WS02006256 (-1.73%)
  Node YS02001774 (1.50%)
  
  
  ***************************
  Time-Step Critical Elements
  ***************************
  Link WS02006252WS02006251 (37.70%)
  Link WS02006280WS02006229 (23.00%)
  Link WS02006238WS02006235 (13.15%)
  Link WS02004404WS02004405 (7.94%)
  Link YS02001791YS02001793 (4.29%)
  
  
  ********************************
  Highest Flow Instability Indexes
  ********************************
  Link WS02006113WS02006111 (39)
  Link WS02006111WS02006112 (25)
  Link WS02006256WS02006235 (17)
  Link WS02006238WS02006235 (17)
  Link WS02006252WS02006251 (16)
  
  
  *************************
  Routing Time Step Summary
  *************************
  Minimum Time Step           :     0.01 sec
  Average Time Step           :     1.80 sec
  Maximum Time Step           :     6.46 sec
  Percent in Steady State     :    -0.00
  Average Iterations per Step :     3.19
  Percent Not Converging      :    13.53
  
  
  ***************************
  Subcatchment Runoff Summary
  ***************************
  
  ------------------------------------------------------------------------------------------------------------------------------
                            Total      Total      Total      Total     Imperv       Perv      Total       Total     Peak  Runoff
                           Precip      Runon       Evap      Infil     Runoff     Runoff     Runoff      Runoff   Runoff   Coeff
  Subcatchment                 mm         mm         mm         mm         mm         mm         mm    10^6 ltr      LPS
  ------------------------------------------------------------------------------------------------------------------------------
  sub0                      44.85       0.00       0.00       0.98      40.46       2.17      42.63        0.03    24.08   0.950
  sub1                      44.85       0.00       0.00       1.64      38.67       3.29      41.97        0.28   155.08   0.936
  sub10                     44.85       0.00       0.00       1.16      39.98       2.43      42.41        0.47   267.95   0.946
  sub11                     44.85       0.00       0.00       1.15      40.00       2.44      42.44        0.49   300.41   0.946
  sub12                     44.85       0.00       0.00       1.86      37.85       3.97      41.81        0.37   244.18   0.932
  sub14                     44.85       0.00       0.00       1.31      39.56       2.73      42.29        0.40   238.28   0.943
  sub15                     44.85       0.00       0.00       5.03      30.43       8.43      38.86        0.67   347.01   0.866
  sub16                     44.85       0.00       0.00       5.22      29.14       9.58      38.72        0.41   235.05   0.863
  sub17                     44.85       0.00       0.00       5.09      29.57       9.27      38.84        0.33   191.21   0.866
  sub2                      44.85       0.00       0.00       7.09      27.35       9.51      36.86        0.34   149.52   0.822
  sub22                     44.85       0.00       0.00       7.58      24.78      11.71      36.49        2.31  1131.42   0.814
  sub23                     44.85       0.00       0.00       6.21      27.40      10.39      37.79        1.80   951.66   0.842
  sub3                      44.85       0.00       0.00       7.64      27.32       8.95      36.27        0.82   319.68   0.809
  sub4                      44.85       0.00       0.00       1.81      38.51       3.13      41.64        0.87   359.53   0.928
  sub5                      44.85       0.00       0.00       1.01      40.41       2.13      42.54        0.48   270.08   0.948
  sub60                     44.85       0.00       0.00       1.75      38.27       3.63      41.90        0.55   338.60   0.934
  sub61                     44.85       0.00       0.00       2.53      36.09       5.10      41.19        0.76   465.09   0.918
  sub62                     44.85       0.00       0.00       1.17      39.98       2.42      42.40        1.16   654.14   0.945
  sub63                     44.85       0.00       0.00       4.63      30.87       8.38      39.25        0.89   503.79   0.875
  sub64                     44.85       0.00       0.00       2.35      36.92       4.38      41.30        0.99   518.98   0.921
  sub65                     44.85       0.00       0.00       2.03      37.77       3.80      41.57        1.14   577.73   0.927
  sub66                     44.85       0.00       0.00       5.63      30.77       7.38      38.15        1.78   722.27   0.850
  sub67                     44.85       0.00       0.00       1.13      40.02       2.46      42.48        0.79   522.04   0.947
  sub68                     44.85       0.00       0.00       2.09      37.38       4.19      41.57        1.14   668.87   0.927
  sub69                     44.85       0.00       0.00       1.83      38.01       4.90      42.91        1.59   778.59   0.957
  sub7                      44.85       0.00       0.00       1.29      39.57       2.75      42.32        0.14    89.02   0.944
  sub70                     44.85       0.00       0.00       5.96      29.44       9.29      38.73        1.12   410.39   0.863
  sub71                     44.85       0.00       0.00       1.19      39.94       2.40      42.33        1.11   565.99   0.944
  sub72                     44.85       0.00       0.00       1.06      40.31       2.08      42.40        0.58   268.86   0.945
  sub8                      44.85       0.00       0.00       1.30      39.56       2.74      42.30        0.27   162.51   0.943
  sub9                      44.85       0.00       0.00       1.30      39.56       2.74      42.30        0.20   121.27   0.943
  
  
  ******************
  Node Depth Summary
  ******************
  
  ---------------------------------------------------------------------------------
                                 Average  Maximum  Maximum  Time of Max    Reported
                                   Depth    Depth      HGL   Occurrence   Max Depth
  Node                 Type       Meters   Meters   Meters  days hr:min      Meters
  ---------------------------------------------------------------------------------
  HS02004478           JUNCTION     0.16     1.57    10.80     0  01:50        1.51
  HS02004479           JUNCTION     0.23     1.69    10.89     0  01:50        1.65
  HS02004480           JUNCTION     0.19     1.67    10.91     0  01:50        1.63
  HS02004770           JUNCTION     0.21     1.42    11.25     0  01:47        1.42
  HS02004777           JUNCTION     0.23     1.48    11.28     0  01:47        1.48
  HS02004785           JUNCTION     0.13     1.49    11.39     0  01:47        1.39
  HS02004788           JUNCTION     0.10     1.42    11.32     0  01:47        1.42
  HS02004792           JUNCTION     0.14     1.60    11.12     0  01:46        1.60
  HS02004799           JUNCTION     0.25     1.76    10.97     0  01:48        1.76
  HS02004802           JUNCTION     0.25     1.79    10.92     0  01:50        1.66
  HS02004807           JUNCTION     0.22     1.92    11.09     0  01:48        1.69
  HS02004817           JUNCTION     0.53     2.44    11.29     0  01:48        2.05
  HS02004824           JUNCTION     0.10     2.01    11.41     0  01:48        1.53
  HS02004830           JUNCTION     0.11     2.03    11.50     0  01:48        1.49
  HS02004837           JUNCTION     0.09     2.04    11.62     0  01:48        1.40
  HS02004842           JUNCTION     0.38     2.22    11.49     0  01:50        1.71
  HS02004848           JUNCTION     0.07     1.97    11.57     0  01:50        1.38
  HS02004852           JUNCTION     0.07     2.02    11.53     0  01:50        1.43
  HS02004856           JUNCTION     0.13     2.05    11.47     0  01:50        1.47
  HS02004862           JUNCTION     0.08     2.00    11.38     0  01:50        1.44
  HS02004870           JUNCTION     0.08     2.06    11.35     0  01:50        1.44
  HS02004876           JUNCTION     0.12     2.26    11.29     0  01:50        1.56
  HS02004881           JUNCTION     0.07     2.15    11.18     0  01:50        1.38
  HS02004901           JUNCTION     0.22     1.42    11.24     0  01:47        1.42
  WS02001211           JUNCTION     0.63     0.80     5.64     0  01:54        0.80
  WS02001212           JUNCTION     0.37     0.56     5.63     0  01:54        0.56
  WS02001213           JUNCTION     0.60     0.86     5.62     0  01:54        0.86
  WS02003059           JUNCTION     0.66     0.93     5.62     0  01:55        0.93
  WS02003060           JUNCTION     0.39     0.68     5.61     0  01:55        0.68
  WS02003066           JUNCTION     0.24     0.45     6.00     0  01:53        0.45
  WS02003067           JUNCTION     0.57     0.88     6.20     0  01:53        0.88
  WS02003069           JUNCTION     0.43     0.77     5.35     0  01:56        0.77
  WS02003072           JUNCTION     0.49     0.80     5.17     0  01:56        0.80
  WS02003073           JUNCTION     0.30     0.51     4.57     0  01:57        0.51
  WS02004138           JUNCTION     0.13     0.14     7.39     0  00:32        0.14
  WS02004139           JUNCTION     0.57     0.74     5.65     0  01:53        0.73
  WS02004401           JUNCTION     0.76     1.77     7.77     0  01:50        1.76
  WS02004402           JUNCTION     0.78     1.71     7.67     0  01:50        1.71
  WS02004403           JUNCTION     0.79     1.65     7.58     0  01:50        1.64
  WS02004404           JUNCTION     0.86     1.66     7.51     0  01:50        1.65
  WS02004405           JUNCTION     0.85     1.61     7.46     0  01:50        1.61
  WS02004406           JUNCTION     0.84     1.51     7.34     0  01:50        1.50
  WS02004407           JUNCTION     0.26     0.86     7.17     0  01:50        0.86
  WS02004409           JUNCTION     0.54     1.34     7.11     0  01:50        1.34
  WS02004410           JUNCTION     0.55     1.26     6.98     0  01:50        1.25
  WS02004411           JUNCTION     0.55     1.18     6.86     0  01:50        1.17
  WS02004412           JUNCTION     0.56     1.08     6.72     0  01:50        1.08
  WS02004413           JUNCTION     0.70     1.13     6.60     0  01:50        1.13
  WS02006109           JUNCTION     0.94     2.64     9.26     0  01:48        2.64
  WS02006110           JUNCTION     0.89     2.36     8.94     0  01:50        2.36
  WS02006111           JUNCTION     0.37     1.64     8.35     0  01:51        1.64
  WS02006112           JUNCTION     0.96     2.26     8.14     0  01:50        2.24
  WS02006113           JUNCTION     0.46     1.75     8.65     0  01:50        1.75
  WS02006115           JUNCTION     0.67     1.85     7.99     0  01:50        1.84
  WS02006116           JUNCTION     0.74     1.85     7.89     0  01:50        1.84
  WS02006228           JUNCTION     0.98     3.03     9.68     0  01:50        3.01
  WS02006229           JUNCTION     0.97     3.23     9.92     0  01:50        3.19
  WS02006230           JUNCTION     0.93     2.65     9.39     0  01:46        2.65
  WS02006231           JUNCTION     0.68     2.19     9.32     0  02:13        2.19
  WS02006232           JUNCTION     0.79     2.18     9.22     0  01:46        2.18
  WS02006234           JUNCTION     0.69     1.96     9.12     0  01:45        1.96
  WS02006235           JUNCTION     0.71     1.97     9.13     0  01:55        1.94
  WS02006238           JUNCTION     0.74     1.98     9.12     0  01:55        1.95
  WS02006239           JUNCTION     0.69     1.83     9.04     0  01:55        1.82
  WS02006240           JUNCTION     0.65     2.10     9.39     0  01:39        2.10
  WS02006242           JUNCTION     0.70     1.55     8.82     0  01:38        1.55
  WS02006243           JUNCTION     0.60     1.48     8.90     0  01:39        1.37
  WS02006245           JUNCTION     0.59     1.53     9.02     0  01:39        1.27
  WS02006247           JUNCTION     0.60     1.47     8.97     0  01:39        1.24
  WS02006248           JUNCTION     0.55     1.10     8.69     0  01:40        1.10
  WS02006249           JUNCTION     0.58     1.09     8.69     0  01:40        1.09
  WS02006251           JUNCTION     0.64     2.21     9.88     0  01:50        2.08
  WS02006252           JUNCTION     0.45     1.50     9.74     0  00:00        1.50
  WS02006253           JUNCTION     0.69     3.35    10.99     0  01:50        2.69
  WS02006256           JUNCTION     1.02     2.35     9.28     0  00:00        2.35
  WS02006280           JUNCTION     0.21     1.75    10.02     0  01:50        1.71
  WS02006284           JUNCTION     0.48     1.94    10.34     0  01:50        1.89
  WS02006287           JUNCTION     0.21     1.73    10.68     0  01:50        1.67
  WSF200               JUNCTION     0.23     0.51     5.74     0  01:53        0.51
  YS02001580           JUNCTION     0.05     1.05     9.59     0  01:48        0.76
  YS02001583           JUNCTION     0.08     1.14     9.64     0  01:48        0.82
  YS02001586           JUNCTION     0.13     1.13     9.30     0  01:48        1.13
  YS02001590           JUNCTION     0.21     1.40     9.26     0  01:48        1.40
  YS02001593           JUNCTION     0.15     1.36     9.23     0  01:48        1.29
  YS02001596           JUNCTION     0.20     1.71     9.13     0  01:48        1.69
  YS02001600           JUNCTION     0.25     1.87     9.00     0  01:48        1.86
  YS02001601           JUNCTION     0.44     2.06     8.90     0  01:47        2.06
  YS02001602           JUNCTION     0.36     1.87     8.77     0  01:48        1.87
  YS02001605           JUNCTION     0.33     1.78     8.68     0  01:48        1.77
  YS02001607           JUNCTION     0.34     1.65     8.49     0  01:55        1.65
  YS02001610           JUNCTION     0.38     1.68     8.48     0  01:48        1.68
  YS02001613           JUNCTION     0.34     1.67     8.51     0  01:48        1.65
  YS02001616           JUNCTION     0.28     1.61     8.52     0  01:48        1.60
  YS02001619           JUNCTION     0.25     1.61     8.54     0  01:48        1.60
  YS02001622           JUNCTION     0.24     1.62     8.52     0  01:48        1.57
  YS02001625           JUNCTION     0.50     1.78     8.38     0  01:48        1.78
  YS02001629           JUNCTION     0.34     1.85     8.40     0  01:48        1.85
  YS02001633           JUNCTION     0.42     2.02     8.48     0  01:50        1.97
  YS02001641           JUNCTION     0.41     1.95     8.38     0  01:52        1.91
  YS02001644           JUNCTION     0.41     1.92     8.35     0  01:52        1.87
  YS02001647           JUNCTION     0.20     1.68     8.29     0  01:52        1.58
  YS02001649           JUNCTION     0.24     1.83     8.22     0  01:52        1.69
  YS02001652           JUNCTION     0.14     1.69     8.29     0  01:52        1.51
  YS02001655           JUNCTION     0.11     1.62     8.47     0  01:50        1.28
  YS02001658           JUNCTION     0.07     1.39     8.54     0  01:52        1.01
  YS02001661           JUNCTION     0.11     0.79     8.19     0  01:52        0.77
  YS02001664           JUNCTION     0.04     0.27     8.20     0  01:51        0.27
  YS02001745           JUNCTION     0.04     0.49     8.01     0  01:52        0.49
  YS02001748           JUNCTION     0.07     0.95     8.03     0  01:52        0.84
  YS02001751           JUNCTION     0.09     1.58     8.46     0  01:51        1.04
  YS02001754           JUNCTION     0.12     1.64     8.24     0  01:51        1.30
  YS02001757           JUNCTION     0.26     1.75     8.02     0  01:52        1.66
  YS02001759           JUNCTION     0.21     1.72     8.08     0  01:52        1.66
  YS02001762           JUNCTION     0.20     1.71     8.11     0  01:52        1.67
  YS02001765           JUNCTION     0.18     1.68     8.13     0  01:51        1.67
  YS02001767           JUNCTION     0.18     1.68     8.17     0  01:52        1.68
  YS02001770           JUNCTION     0.19     1.92     8.41     0  01:50        1.75
  YS02001774           JUNCTION     0.26     1.99     8.41     0  01:50        1.83
  YS02001779           JUNCTION     0.10     1.68     8.37     0  01:50        1.58
  YS02001783           JUNCTION     0.18     1.34     7.48     0  01:49        1.21
  YS02001784           JUNCTION     0.20     1.20     7.27     0  01:49        1.10
  YS02001786           JUNCTION     0.17     0.92     6.95     0  01:49        0.86
  YS02001788           JUNCTION     0.12     0.62     6.60     0  01:52        0.62
  YS02001790           JUNCTION     0.14     0.72     6.37     0  01:52        0.71
  YS02001791           JUNCTION     0.09     0.44     5.91     0  01:56        0.43
  YS02001793           JUNCTION     0.05     0.30     5.13     0  01:53        0.27
  YS02001882           JUNCTION     0.23     1.79     8.51     0  01:48        1.63
  YS02001884           JUNCTION     0.32     1.86     8.48     0  01:48        1.73
  YS02001887           JUNCTION     0.40     1.89     8.42     0  01:48        1.80
  YS02001890           JUNCTION     0.43     1.81     8.32     0  01:48        1.81
  YS02001895           JUNCTION     0.20     1.58     8.33     0  01:49        1.58
  YS02001898           JUNCTION     0.21     1.57     8.31     0  01:49        1.57
  YS02001901           JUNCTION     0.32     1.67     8.28     0  01:50        1.67
  YS02001904           JUNCTION     0.31     1.64     8.27     0  01:49        1.63
  YS02001907           JUNCTION     0.62     1.96     8.25     0  01:49        1.96
  YS02001910           JUNCTION     0.42     2.00     8.51     0  01:50        1.84
  YS02001915           JUNCTION     0.23     1.94     8.66     0  01:50        1.68
  YS02001918           JUNCTION     0.11     1.81     8.88     0  01:50        1.39
  YS02001920           JUNCTION     0.19     2.14     9.15     0  01:50        1.47
  YS02001923           JUNCTION     0.08     2.03     9.29     0  01:50        1.25
  YS02001926           JUNCTION     0.12     1.90     9.35     0  01:50        1.08
  YS02001929           JUNCTION     0.06     1.75     9.45     0  01:50        0.86
  YS02006553           JUNCTION     0.63     2.00     8.29     0  01:49        1.96
  YS02006556           JUNCTION     0.60     2.01     8.33     0  01:49        1.92
  YS02006558           JUNCTION     0.64     2.07     8.34     0  01:49        1.96
  YS02006561           JUNCTION     0.11     1.05     7.71     0  01:49        0.87
  YS02163301           JUNCTION     0.37     1.98     8.49     0  01:48        1.89
  YS02163601           JUNCTION     0.46     2.04     8.44     0  02:02        1.98
  YS02164001           JUNCTION     0.40     1.96     8.42     0  02:02        1.90
  YSB1154              JUNCTION     0.36     1.90    10.96     0  01:48        1.85
  YSB1171              JUNCTION     0.51     1.95    10.85     0  01:48        1.95
  YSB1174              JUNCTION     0.31     1.80    10.91     0  01:48        1.77
  YSB6556              JUNCTION     0.26     1.76    10.92     0  01:48        1.71
  CC-1                 OUTFALL      0.00     0.00     0.00     0  00:00        0.00
  CC-2                 OUTFALL      0.00     0.00     0.00     0  00:00        0.00
  JK-1                 OUTFALL      0.00     0.00     0.00     0  00:00        0.00
  JK-2                 OUTFALL      0.00     0.00     0.00     0  00:00        0.00
  WSC                  OUTFALL      0.30     0.51     1.18     0  01:57        0.51
  CC-storage           STORAGE      0.76     1.47     6.97     0  02:16        1.47
  JK-storage           STORAGE      1.31     4.24     5.04     0  02:00        4.23
  XR-storage           STORAGE      7.96     9.26     7.26     0  08:00        9.26
  
  
  *******************
  Node Inflow Summary
  *******************
  
  -------------------------------------------------------------------------------------------------
                                  Maximum  Maximum                  Lateral       Total        Flow
                                  Lateral    Total  Time of Max      Inflow      Inflow     Balance
                                   Inflow   Inflow   Occurrence      Volume      Volume       Error
  Node                 Type           LPS      LPS  days hr:min    10^6 ltr    10^6 ltr     Percent
  -------------------------------------------------------------------------------------------------
  HS02004478           JUNCTION      0.00  2232.96     0  01:51           0        7.14      -0.012
  HS02004479           JUNCTION      0.00   510.31     0  01:50           0       0.787       0.123
  HS02004480           JUNCTION      0.00  2175.56     0  01:48           0        5.55       0.048
  HS02004770           JUNCTION    951.66   951.66     0  01:51         1.8        2.04       0.152
  HS02004777           JUNCTION      0.03   836.33     0  01:47    0.000864        1.68       0.312
  HS02004785           JUNCTION      0.15   853.90     0  01:47     0.00432        1.68       0.016
  HS02004788           JUNCTION    348.68  1022.43     0  01:47       0.717        2.39       0.003
  HS02004792           JUNCTION   1131.70  1840.25     0  01:51        2.31         4.7       0.004
  HS02004799           JUNCTION    238.28  1750.56     0  01:48       0.403        4.78       0.058
  HS02004802           JUNCTION      0.00   637.24     0  01:52           0        1.61       0.239
  HS02004807           JUNCTION    300.41   636.68     0  01:52       0.493        1.66       0.239
  HS02004817           JUNCTION      0.60   492.90     0  01:48      0.0173        1.23       1.337
  HS02004824           JUNCTION    359.58   748.17     0  01:48        0.87        1.41       0.033
  HS02004830           JUNCTION      0.15   744.24     0  01:48     0.00432       0.741       0.126
  HS02004837           JUNCTION    274.30   981.06     0  01:48       0.651        1.05       0.035
  HS02004842           JUNCTION      0.00  1009.29     0  01:48           0       0.718       1.839
  HS02004848           JUNCTION    319.68  1255.57     0  01:48       0.816        1.37       0.010
  HS02004852           JUNCTION      0.00  1161.33     0  01:49           0        1.23       0.017
  HS02004856           JUNCTION    121.27  1252.06     0  01:49       0.203        1.43       0.092
  HS02004862           JUNCTION    149.72  1331.37     0  01:50       0.349        1.78      -0.003
  HS02004870           JUNCTION    162.51  1458.96     0  01:50        0.27        2.05      -0.007
  HS02004876           JUNCTION    155.08  1410.57     0  01:50       0.279        2.33      -0.009
  HS02004881           JUNCTION     89.02  1465.27     0  01:50       0.143        2.47      -0.042
  HS02004901           JUNCTION    235.05   445.99     0  01:54       0.405       0.564       0.314
  WS02001211           JUNCTION      7.35   207.54     0  01:48       0.212        5.44       0.610
  WS02001212           JUNCTION      0.00   210.06     0  03:14           0        5.41       0.290
  WS02001213           JUNCTION      0.00   213.11     0  03:13           0        5.39       0.333
  WS02003059           JUNCTION      0.00   219.36     0  03:13           0        5.39       0.597
  WS02003060           JUNCTION     16.53  1472.18     0  01:55       0.476        15.6       0.095
  WS02003066           JUNCTION      0.00  1262.32     0  01:51           0         9.8       0.017
  WS02003067           JUNCTION      0.00  1261.63     0  01:51           0        9.81       0.046
  WS02003069           JUNCTION      0.32  1469.74     0  01:55     0.00922        15.6       0.101
  WS02003072           JUNCTION      0.00  1468.84     0  01:56           0        15.6       0.136
  WS02003073           JUNCTION      1.82  1470.11     0  01:57      0.0524        15.6       0.141
  WS02004138           JUNCTION      0.00   380.00     0  00:00           0        5.25       0.054
  WS02004139           JUNCTION      0.32   190.32     0  00:32     0.00924        5.26       0.509
  WS02004401           JUNCTION      0.00  1260.41     0  01:50           0        9.92       0.112
  WS02004402           JUNCTION      0.00  1260.52     0  01:51           0        9.91       0.112
  WS02004403           JUNCTION      0.00  1260.20     0  01:51           0         9.9       0.108
  WS02004404           JUNCTION      0.16  1261.13     0  01:51     0.00467        9.89       0.094
  WS02004405           JUNCTION      0.04  1262.21     0  01:48      0.0011        9.88       0.128
  WS02004406           JUNCTION      0.00  1263.24     0  01:48           0        9.87       0.221
  WS02004407           JUNCTION      0.00  1263.37     0  01:48           0        9.85       0.018
  WS02004409           JUNCTION      0.00  1261.97     0  01:50           0        9.85       0.035
  WS02004410           JUNCTION      0.00  1261.71     0  01:50           0        9.84       0.053
  WS02004411           JUNCTION      0.00  1262.14     0  01:50           0        9.84       0.065
  WS02004412           JUNCTION      0.00  1261.88     0  01:50           0        9.83       0.085
  WS02004413           JUNCTION      0.00  1261.66     0  01:51           0        9.82       0.151
  WS02006109           JUNCTION      1.23  1253.34     0  01:51      0.0354        9.74       0.098
  WS02006110           JUNCTION      0.00  1122.23     0  02:04           0        9.63       0.084
  WS02006111           JUNCTION      0.00  1122.44     0  02:04           0        9.61       0.005
  WS02006112           JUNCTION    191.21  1260.52     0  01:50       0.333        9.95       0.185
  WS02006113           JUNCTION      0.00  1122.50     0  02:04           0        9.62       0.032
  WS02006115           JUNCTION      0.00  1260.58     0  01:50           0        9.93       0.072
  WS02006116           JUNCTION      0.00  1260.48     0  01:51           0        9.92       0.022
  WS02006228           JUNCTION      0.00  1252.53     0  01:52           0        9.71       0.041
  WS02006229           JUNCTION      0.00  2234.20     0  01:51           0        11.4       0.073
  WS02006230           JUNCTION     10.28   991.22     0  01:51       0.296        5.95       0.163
  WS02006231           JUNCTION      0.00   563.21     0  04:00           0        5.04      -0.106
  WS02006232           JUNCTION      0.00   562.32     0  04:00           0        5.04       0.151
  WS02006234           JUNCTION      0.00   558.54     0  04:00           0        5.03      -0.177
  WS02006235           JUNCTION      0.00   551.12     0  04:00           0        5.12       0.199
  WS02006238           JUNCTION      0.00   428.59     0  04:01           0        4.82      -0.165
  WS02006239           JUNCTION      0.00   428.94     0  03:56           0        4.78      -0.119
  WS02006240           JUNCTION      0.00   429.33     0  03:55           0        4.76      -0.039
  WS02006242           JUNCTION      0.00   432.16     0  03:55           0        4.75      -0.017
  WS02006243           JUNCTION      0.00   432.89     0  03:55           0        4.45      -0.161
  WS02006245           JUNCTION      0.00   432.38     0  03:55           0        4.46       0.265
  WS02006247           JUNCTION      0.00   431.28     0  03:55           0        4.47       0.009
  WS02006248           JUNCTION      0.00   430.29     0  03:55           0        4.69      -0.008
  WS02006249           JUNCTION      0.00  1338.70     0  01:50           0        7.41       0.118
  WS02006251           JUNCTION      0.08  1498.90     0  01:50     0.00222        7.47      -0.016
  WS02006252           JUNCTION      0.00   563.21     0  01:50           0        5.12      -0.269
  WS02006253           JUNCTION     24.08  1494.69     0  01:50      0.0345        2.56       0.048
  WS02006256           JUNCTION      0.00   300.00     0  00:00           0         1.1      -1.702
  WS02006280           JUNCTION      0.00  2232.57     0  01:51           0        7.12       0.020
  WS02006284           JUNCTION      0.10  2232.66     0  01:51     0.00275        7.12      -0.010
  WS02006287           JUNCTION      0.00  2233.66     0  01:51           0        7.12       0.013
  WSF200               JUNCTION      0.00  1262.66     0  01:51           0         9.8       0.009
  YS02001580           JUNCTION      0.00   167.17     0  01:48           0     0.00434      -7.958
  YS02001583           JUNCTION      0.00   280.68     0  01:48           0      0.0147      -9.697
  YS02001586           JUNCTION    410.39   410.41     0  01:53        1.12        1.13       0.175
  YS02001590           JUNCTION      0.00   318.10     0  01:56           0        1.06      -0.030
  YS02001593           JUNCTION      0.00   318.14     0  01:53           0        1.06       0.004
  YS02001596           JUNCTION      0.00   318.03     0  01:56           0        1.06      -0.001
  YS02001600           JUNCTION      0.00   318.09     0  01:53           0        1.06      -0.006
  YS02001601           JUNCTION    778.59  1096.02     0  01:52        1.59        2.65       0.028
  YS02001602           JUNCTION      0.00   573.07     0  01:47           0        1.96       0.021
  YS02001605           JUNCTION      0.00   572.90     0  01:47           0        1.89       0.022
  YS02001607           JUNCTION      0.00   572.49     0  01:47           0        1.89       0.105
  YS02001610           JUNCTION      0.00   539.44     0  01:48           0        1.89       0.118
  YS02001613           JUNCTION      0.00   538.50     0  01:48           0        1.71       0.102
  YS02001616           JUNCTION      0.00   535.18     0  01:48           0        1.71       0.027
  YS02001619           JUNCTION    722.27   973.06     0  01:48        1.78        3.49      -0.001
  YS02001622           JUNCTION      0.00   923.11     0  01:48           0        3.49      -0.014
  YS02001625           JUNCTION      0.00   915.97     0  01:48           0        3.49       0.249
  YS02001629           JUNCTION      0.00   911.36     0  01:49           0        3.19      -0.007
  YS02001633           JUNCTION    577.93  1421.42     0  01:49        1.15        4.34       0.078
  YS02001641           JUNCTION      0.00  1422.42     0  01:49           0        4.34       0.064
  YS02001644           JUNCTION    519.02  1896.39     0  01:49       0.993        5.33       0.062
  YS02001647           JUNCTION      0.00  1896.48     0  01:49           0        5.32       0.007
  YS02001649           JUNCTION      0.00  2161.67     0  01:49           0        6.21       0.007
  YS02001652           JUNCTION      0.00   575.41     0  01:53           0       0.897      -0.146
  YS02001655           JUNCTION      0.15   576.50     0  01:53     0.00443       0.896      -0.121
  YS02001658           JUNCTION      0.00   693.51     0  01:59           0       0.891      -0.090
  YS02001661           JUNCTION      0.00   506.57     0  01:51           0       0.891       0.054
  YS02001664           JUNCTION    503.79   503.79     0  01:51       0.891       0.891      -0.007
  YS02001745           JUNCTION    338.61   338.61     0  01:51       0.551       0.551       0.280
  YS02001748           JUNCTION      0.04   500.61     0  01:53      0.0013       0.552      -0.356
  YS02001751           JUNCTION      0.01   471.13     0  01:54    0.000317       0.558       0.093
  YS02001754           JUNCTION      0.26   408.34     0  01:52     0.00749       0.568      -0.246
  YS02001757           JUNCTION      0.00  3262.39     0  01:53           0        8.72       0.063
  YS02001759           JUNCTION    465.13  1182.13     0  01:50       0.757        1.94      -0.016
  YS02001762           JUNCTION      0.00   707.56     0  01:50           0        1.18       0.015
  YS02001765           JUNCTION      0.00   698.88     0  01:50           0        1.18       0.011
  YS02001767           JUNCTION      0.54   692.79     0  01:50      0.0154        1.18      -0.003
  YS02001770           JUNCTION    654.29   679.87     0  01:51        1.17        1.21       0.001
  YS02001774           JUNCTION      0.00   367.07     0  01:50           0      0.0656       1.527
  YS02001779           JUNCTION      0.01   368.97     0  01:50    0.000144      0.0213      -4.673
  YS02001783           JUNCTION      0.00  1152.94     0  01:50           0        3.32       0.008
  YS02001784           JUNCTION      1.06  1154.34     0  01:50      0.0305        3.35       0.015
  YS02001786           JUNCTION      0.06  1154.29     0  01:50     0.00162        3.36       0.016
  YS02001788           JUNCTION      0.07  1157.45     0  01:50     0.00204        3.36       0.009
  YS02001790           JUNCTION      0.15  1165.76     0  01:50     0.00446        3.36       0.017
  YS02001791           JUNCTION      0.00  1284.32     0  01:52           0        3.36      -0.015
  YS02001793           JUNCTION      0.00  1226.39     0  01:56           0        3.36       0.008
  YS02001882           JUNCTION      0.00   101.04     0  01:48           0      0.0125       4.705
  YS02001884           JUNCTION      0.00   133.35     0  01:48           0      0.0483       5.486
  YS02001887           JUNCTION    522.49   531.11     0  01:49       0.803       0.836       0.532
  YS02001890           JUNCTION      0.00   543.12     0  01:49           0       0.796       0.648
  YS02001895           JUNCTION      0.00   553.26     0  01:49           0        0.79       0.189
  YS02001898           JUNCTION      0.00   561.28     0  01:49           0       0.788      -0.026
  YS02001901           JUNCTION      0.00   572.77     0  01:49           0       0.791       0.422
  YS02001904           JUNCTION      0.00   576.52     0  01:49           0       0.796       0.355
  YS02001907           JUNCTION      0.00  1511.87     0  01:51           0        2.56       0.705
  YS02001910           JUNCTION      0.00  1004.73     0  01:51           0        1.77       0.413
  YS02001915           JUNCTION    566.01  1004.00     0  01:51        1.11        1.82       0.067
  YS02001918           JUNCTION      0.00   592.97     0  01:49           0        0.75       0.020
  YS02001920           JUNCTION      2.87   512.65     0  01:49      0.0827       0.726       0.079
  YS02001923           JUNCTION      0.04   660.96     0  01:49     0.00109       0.627      -0.143
  YS02001926           JUNCTION      0.05   938.85     0  01:49      0.0015       0.606      -0.203
  YS02001929           JUNCTION    268.86   750.60     0  01:50       0.583       0.589      -0.085
  YS02006553           JUNCTION      0.00   790.34     0  02:04           0         2.2       0.546
  YS02006556           JUNCTION      0.00   791.13     0  02:04           0        2.21       0.362
  YS02006558           JUNCTION    669.75  1178.72     0  01:49        1.17        3.36       0.110
  YS02006561           JUNCTION      0.00  1175.42     0  01:49           0        3.32      -0.005
  YS02163301           JUNCTION      0.00   910.00     0  01:49           0        3.19       0.045
  YS02163601           JUNCTION      0.11  1421.71     0  01:49     0.00317        4.34       0.109
  YS02164001           JUNCTION      0.00  1421.14     0  01:49           0        4.34       0.053
  YSB1154              JUNCTION    270.08   270.08     0  01:51       0.482       0.483       0.310
  YSB1171              JUNCTION      0.00   509.41     0  01:50           0       0.855       0.751
  YSB1174              JUNCTION    244.18   244.18     0  01:50       0.365       0.366       0.362
  YSB6556              JUNCTION      0.00   270.21     0  01:51           0       0.483       0.273
  CC-1                 OUTFALL       0.00   683.00     0  00:00           0        2.97       0.000
  CC-2                 OUTFALL       0.00   683.00     0  00:00           0        1.49       0.000
  JK-1                 OUTFALL       0.00  1000.00     0  00:00           0        1.32       0.000
  JK-2                 OUTFALL       0.00  1000.00     0  00:00           0        1.07       0.000
  WSC                  OUTFALL       0.00  1469.48     0  01:57           0        15.6       0.000
  CC-storage           STORAGE       0.00  3263.63     0  01:53           0        10.9      -0.282
  JK-storage           STORAGE       0.00  1243.89     0  01:56           0        3.51      -0.494
  XR-storage           STORAGE     200.00   200.00     0  00:00        5.76        6.36       0.001
  
  
  **********************
  Node Surcharge Summary
  **********************
  
  Surcharging occurs when water rises above the top of the highest conduit.
  ---------------------------------------------------------------------
                                               Max. Height   Min. Depth
                                   Hours       Above Crown    Below Rim
  Node                 Type      Surcharged         Meters       Meters
  ---------------------------------------------------------------------
  HS02004478           JUNCTION        0.33          0.654        0.286
  HS02004479           JUNCTION        0.45          0.888        0.162
  HS02004480           JUNCTION        0.49          0.955        0.145
  HS02004770           JUNCTION        0.41          0.720        0.000
  HS02004777           JUNCTION        0.41          0.780        0.000
  HS02004785           JUNCTION        0.36          0.790        0.000
  HS02004788           JUNCTION        0.34          0.720        0.000
  HS02004792           JUNCTION        0.46          0.900        0.000
  HS02004799           JUNCTION        0.56          1.060        0.000
  HS02004802           JUNCTION        0.49          1.082        0.128
  HS02004807           JUNCTION        0.48          1.220        0.000
  HS02004817           JUNCTION        1.01          1.740        0.000
  HS02004824           JUNCTION        0.35          1.310        0.000
  HS02004830           JUNCTION        0.33          1.330        0.000
  HS02004837           JUNCTION        0.28          1.340        0.000
  HS02004842           JUNCTION        0.41          1.520        0.000
  HS02004848           JUNCTION        0.26          1.270        0.100
  HS02004852           JUNCTION        0.28          1.319        0.101
  HS02004856           JUNCTION        0.27          1.276        0.024
  HS02004862           JUNCTION        0.30          1.300        0.000
  HS02004870           JUNCTION        0.32          1.362        0.038
  HS02004876           JUNCTION        0.39          1.560        0.000
  HS02004881           JUNCTION        0.37          1.450        0.000
  HS02004901           JUNCTION        0.41          0.720        0.000
  WS02004401           JUNCTION        1.48          0.766        0.894
  WS02004402           JUNCTION        1.51          0.714        1.026
  WS02004403           JUNCTION        1.51          0.647        1.383
  WS02004404           JUNCTION        1.68          0.662        2.118
  WS02004405           JUNCTION        1.65          0.614        2.186
  WS02004406           JUNCTION        1.62          0.511        1.939
  WS02004409           JUNCTION        0.80          0.344        2.016
  WS02004410           JUNCTION        0.75          0.260        2.280
  WS02004411           JUNCTION        0.69          0.177        2.353
  WS02004412           JUNCTION        0.59          0.084        2.226
  WS02004413           JUNCTION        1.10          0.132        2.068
  WS02006109           JUNCTION        2.76          1.820        0.000
  WS02006110           JUNCTION        1.96          1.448        0.402
  WS02006111           JUNCTION        0.99          0.830        1.040
  WS02006112           JUNCTION        2.23          1.256        0.424
  WS02006113           JUNCTION        1.03          0.954        0.976
  WS02006115           JUNCTION        1.45          0.838        1.412
  WS02006116           JUNCTION        1.46          0.788        1.502
  WS02006228           JUNCTION        2.73          2.200        0.000
  WS02006229           JUNCTION        0.74          1.046        0.024
  WS02006230           JUNCTION        1.78          1.570        0.000
  WS02006231           JUNCTION        2.00          1.484        0.046
  WS02006232           JUNCTION        2.82          1.480        0.000
  WS02006234           JUNCTION        2.56          1.240        0.000
  WS02006235           JUNCTION        2.60          1.256        0.034
  WS02006238           JUNCTION        2.67          1.259        0.171
  WS02006239           JUNCTION        2.60          1.094        0.196
  WS02006240           JUNCTION        2.61          1.390        0.000
  WS02006242           JUNCTION        2.82          0.820        0.000
  WS02006243           JUNCTION        2.63          0.770        0.000
  WS02006245           JUNCTION        2.63          0.821        0.029
  WS02006247           JUNCTION        2.67          0.760        0.000
  WS02006248           JUNCTION        2.60          0.380        0.000
  WS02006249           JUNCTION        2.64          0.390        0.000
  WS02006251           JUNCTION        2.17          1.180        0.000
  WS02006252           JUNCTION        3.08          1.100        0.000
  WS02006253           JUNCTION        2.24          2.309        0.171
  WS02006256           JUNCTION        7.52          2.050        0.000
  WS02006280           JUNCTION        0.58          0.696        0.084
  WS02006284           JUNCTION        0.50          0.661        0.139
  WS02006287           JUNCTION        0.42          0.730        0.160
  YS02001580           JUNCTION        0.39          0.450        0.000
  YS02001583           JUNCTION        0.40          0.500        0.000
  YS02001586           JUNCTION        0.54          0.510        0.000
  YS02001590           JUNCTION        0.61          0.750        0.000
  YS02001593           JUNCTION        0.62          0.744        0.096
  YS02001596           JUNCTION        0.71          0.983        0.087
  YS02001600           JUNCTION        0.84          1.190        0.000
  YS02001601           JUNCTION        1.25          1.440        0.000
  YS02001602           JUNCTION        1.10          1.270        0.000
  YS02001605           JUNCTION        1.04          1.180        0.000
  YS02001607           JUNCTION        0.58          0.646        0.034
  YS02001610           JUNCTION        0.60          0.680        0.000
  YS02001613           JUNCTION        0.57          0.672        0.028
  YS02001616           JUNCTION        0.53          0.610        0.000
  YS02001619           JUNCTION        0.52          0.610        0.000
  YS02001622           JUNCTION        0.51          0.620        0.000
  YS02001625           JUNCTION        0.68          0.780        0.000
  YS02001629           JUNCTION        0.46          0.470        0.000
  YS02001633           JUNCTION        0.70          1.003        0.057
  YS02001641           JUNCTION        0.63          0.946        0.154
  YS02001644           JUNCTION        0.60          0.920        0.000
  YS02001647           JUNCTION        0.41          0.682        0.218
  YS02001649           JUNCTION        0.52          0.825        0.225
  YS02001652           JUNCTION        0.33          0.661        0.469
  YS02001655           JUNCTION        0.16          0.623        0.577
  YS02001658           JUNCTION        0.01          0.395        0.905
  YS02001751           JUNCTION        0.04          0.585        0.615
  YS02001754           JUNCTION        0.22          0.586        0.564
  YS02001757           JUNCTION        0.57          0.754        0.456
  YS02001759           JUNCTION        0.47          0.717        0.493
  YS02001762           JUNCTION        0.44          0.709        0.441
  YS02001765           JUNCTION        0.39          0.682        0.418
  YS02001767           JUNCTION        0.37          0.681        0.349
  YS02001770           JUNCTION        0.34          0.887        0.033
  YS02001774           JUNCTION        0.43          0.991        0.059
  YS02001779           JUNCTION        0.22          0.680        0.000
  YS02001783           JUNCTION        0.40          0.542        1.058
  YS02001784           JUNCTION        0.38          0.401        1.089
  YS02001786           JUNCTION        0.28          0.121        1.309
  YS02001882           JUNCTION        0.35          0.794        0.036
  YS02001884           JUNCTION        0.36          0.805        0.065
  YS02001887           JUNCTION        0.39          0.836        0.114
  YS02001890           JUNCTION        0.40          0.760        0.000
  YS02001895           JUNCTION        0.34          0.579        0.171
  YS02001898           JUNCTION        0.33          0.544        0.196
  YS02001901           JUNCTION        0.38          0.674        0.196
  YS02001904           JUNCTION        0.37          0.638        0.212
  YS02001907           JUNCTION        0.57          0.950        0.000
  YS02001910           JUNCTION        0.43          1.000        0.100
  YS02001915           JUNCTION        0.35          0.941        0.059
  YS02001918           JUNCTION        0.27          0.810        0.000
  YS02001920           JUNCTION        0.28          1.140        0.000
  YS02001923           JUNCTION        0.01          0.820        0.000
  YS02001926           JUNCTION        0.01          0.900        0.000
  YS02001929           JUNCTION        0.01          0.753        0.027
  YS02006553           JUNCTION        0.58          1.001        0.189
  YS02006556           JUNCTION        0.50          0.975        0.375
  YS02006558           JUNCTION        0.49          0.969        0.431
  YS02006561           JUNCTION        0.24          0.250        0.900
  YS02163301           JUNCTION        0.68          0.977        0.053
  YS02163601           JUNCTION        0.72          1.044        0.036
  YS02164001           JUNCTION        0.64          0.958        0.142
  YSB1154              JUNCTION        0.67          1.199        0.201
  YSB1171              JUNCTION        0.67          1.100        0.000
  YSB1174              JUNCTION        0.59          1.096        0.154
  YSB6556              JUNCTION        0.53          1.056        0.044
  
  
  *********************
  Node Flooding Summary
  *********************
  
  Flooding refers to all water that overflows a node, whether it ponds or not.
  --------------------------------------------------------------------------
                                                             Total   Maximum
                                 Maximum   Time of Max       Flood    Ponded
                        Hours       Rate    Occurrence      Volume     Depth
  Node                 Flooded       LPS   days hr:min    10^6 ltr    Meters
  --------------------------------------------------------------------------
  HS02004770              0.20    512.89      0  01:50       0.199     0.000
  HS02004777              0.01     66.19      0  01:47       0.001     0.000
  HS02004785              0.01     51.00      0  01:47       0.000     0.000
  HS02004788              0.01    564.88      0  01:47       0.006     0.000
  HS02004792              0.21    687.21      0  01:51       0.323     0.000
  HS02004799              0.04     99.17      0  01:50       0.004     0.000
  HS02004807              0.01     14.82      0  01:50       0.000     0.000
  HS02004817              0.01     15.07      0  01:48       0.000     0.000
  HS02004824              0.01     46.25      0  01:48       0.000     0.000
  HS02004830              0.01     25.01      0  01:48       0.000     0.000
  HS02004837              0.01    220.49      0  01:48       0.000     0.000
  HS02004842              0.01     52.11      0  01:50       0.000     0.000
  HS02004862              0.01    405.81      0  01:50       0.003     0.000
  HS02004876              0.01     93.39      0  01:50       0.000     0.000
  HS02004881              0.01    492.29      0  01:50       0.001     0.000
  HS02004901              0.28    445.99      0  01:54       0.326     0.000
  WS02006109              0.27    182.68      0  01:51       0.109     0.000
  WS02006230              0.51    538.44      0  01:51       0.630     0.000
  WS02006232              0.13      1.01      0  02:02       0.000     0.000
  WS02006234              0.57    128.88      0  02:13       0.182     0.000
  WS02006240              0.01     54.13      0  01:39       0.000     0.000
  WS02006242              0.69    142.80      0  01:38       0.293     0.000
  WS02006243              0.01     71.14      0  01:39       0.000     0.000
  WS02006247              0.01     49.55      0  01:39       0.000     0.000
  WS02006248              1.00    350.15      0  01:47       1.006     0.000
  WS02006249              1.93   1273.37      0  01:50       3.506     0.000
  WS02006251              0.01    133.38      0  01:50       0.001     0.000
  WS02006252              0.31    562.25      0  01:50       0.217     0.000
  WS02006256              1.01    293.19      0  00:00       0.591     0.000
  YS02001580              0.01     89.71      0  01:48       0.000     0.000
  YS02001583              0.01    181.90      0  01:48       0.000     0.000
  YS02001586              0.27    139.82      0  01:48       0.058     0.000
  YS02001590              0.01      2.49      0  01:48       0.000     0.000
  YS02001600              0.01      7.63      0  01:48       0.000     0.000
  YS02001601              0.48    698.20      0  01:52       0.686     0.000
  YS02001602              0.37     62.00      0  01:56       0.074     0.000
  YS02001605              0.01      4.11      0  01:48       0.000     0.000
  YS02001610              0.32    235.28      0  01:54       0.170     0.000
  YS02001616              0.01     67.11      0  01:48       0.000     0.000
  YS02001619              0.01     66.83      0  01:48       0.000     0.000
  YS02001622              0.01    150.53      0  01:48       0.000     0.000
  YS02001625              0.28    640.18      0  01:53       0.290     0.000
  YS02001629              0.03    258.91      0  01:48       0.003     0.000
  YS02001644              0.01     13.65      0  01:52       0.000     0.000
  YS02001779              0.01    315.43      0  01:50       0.003     0.000
  YS02001890              0.02     54.65      0  01:48       0.001     0.000
  YS02001907              0.21   1029.33      0  01:51       0.349     0.000
  YS02001918              0.01    202.66      0  01:50       0.003     0.000
  YS02001920              0.01     31.85      0  01:50       0.000     0.000
  YS02001923              0.01    293.23      0  01:50       0.001     0.000
  YS02001926              0.01    516.22      0  01:50       0.003     0.000
  YSB1171                 0.12    268.85      0  01:52       0.069     0.000
  
  
  **********************
  Storage Volume Summary
  **********************
  
  --------------------------------------------------------------------------------------------------
                         Average     Avg  Evap Exfil       Maximum     Max    Time of Max    Maximum
                          Volume    Pcnt  Pcnt  Pcnt        Volume    Pcnt     Occurrence    Outflow
  Storage Unit           1000 m3    Full  Loss  Loss       1000 m3    Full    days hr:min        LPS
  --------------------------------------------------------------------------------------------------
  CC-storage               2.116      33     0     0         4.102      64       0  02:16    1783.53
  JK-storage               0.066      23     0     0         0.213      73       0  02:00    2300.00
  XR-storage               0.955      66     0     0         1.111      77       0  08:00     380.00
  
  
  ***********************
  Outfall Loading Summary
  ***********************
  
  -----------------------------------------------------------
                         Flow       Avg       Max       Total
                         Freq      Flow      Flow      Volume
  Outfall Node           Pcnt       LPS       LPS    10^6 ltr
  -----------------------------------------------------------
  CC-1                  16.03    683.00    683.00       2.972
  CC-2                   8.49    683.00    683.00       1.490
  JK-1                   4.92   1000.00   1000.00       1.325
  JK-2                   4.17   1000.00   1000.00       1.067
  WSC                   99.96    604.03   1469.48      15.608
  -----------------------------------------------------------
  System                26.71   3970.03   4809.04      22.461
  
  
  ********************
  Link Flow Summary
  ********************
  
  -----------------------------------------------------------------------------
                                 Maximum  Time of Max   Maximum    Max/    Max/
                                  |Flow|   Occurrence   |Veloc|    Full    Full
  Link                 Type          LPS  days hr:min     m/sec    Flow   Depth
  -----------------------------------------------------------------------------
  1                    CONDUIT   1469.48     0  01:57      3.68    0.51    0.51
  HS02004478WS02006287 CONDUIT   2233.66     0  01:51      2.59    0.63    1.00
  HS02004479HS02004480 CONDUIT    509.02     0  01:50      0.73    0.49    1.00
  HS02004480HS02004478 CONDUIT   2180.29     0  01:48      3.11    9.18    1.00
  HS02004770HS02004777 CONDUIT    836.30     0  01:47      1.19    1.53    1.00
  HS02004777HS02004785 CONDUIT    853.75     0  01:47      1.32    1.05    1.00
  HS02004785HS02004788 CONDUIT    774.56     0  01:47      1.34    5.84    1.00
  HS02004788HS02004792 CONDUIT    815.35     0  02:04      1.44    0.54    1.00
  HS02004792HS02004799 CONDUIT   1550.54     0  01:48      2.22    0.95    1.00
  HS02004799HS02004480 CONDUIT   1747.10     0  01:48      2.50    2.21    1.00
  HS02004802HS02004478 CONDUIT    637.07     0  01:52      0.91    0.56    1.00
  HS02004807HS02004802 CONDUIT    637.24     0  01:52      0.91    1.22    1.00
  HS02004817HS02004807 CONDUIT    492.30     0  01:48      0.70    0.29    1.00
  HS02004817HS02004824 CONDUIT    490.51     0  01:48      0.70    0.22    1.00
  HS02004824HS02004830 CONDUIT    744.09     0  01:48      1.08    0.97    1.00
  HS02004830HS02004837 CONDUIT    751.50     0  01:48      1.15    0.75    1.00
  HS02004837HS02004842 CONDUIT   1009.29     0  01:48      1.44    0.60    1.00
  HS02004842HS02004848 CONDUIT   1012.30     0  01:48      1.60    0.59    1.00
  HS02004848HS02004852 CONDUIT   1161.33     0  01:49      1.74    1.31    1.00
  HS02004852HS02004856 CONDUIT   1135.43     0  01:49      1.62    1.30    1.00
  HS02004856HS02004862 CONDUIT   1191.31     0  01:50      1.74    1.19    1.00
  HS02004862HS02004870 CONDUIT   1298.19     0  01:50      1.95    1.40    1.00
  HS02004870HS02004876 CONDUIT   1260.24     0  01:50      1.94    0.84    1.00
  HS02004876HS02004881 CONDUIT   1376.29     0  01:50      2.30   14.64    1.00
  HS02004881HS02006253 CONDUIT   1471.23     0  01:50      2.10    0.29    1.00
  HS02004901HS02004770 CONDUIT    264.72     0  01:59      0.38    1.00    1.00
  WS02001211WS02001212 CONDUIT    210.06     0  03:14      0.54    0.16    0.68
  WS02001212WS02001213 CONDUIT    213.11     0  03:13      1.03    0.33    0.55
  WS02001213WS02003059 CONDUIT    219.36     0  03:13      0.47    0.36    0.88
  WS02003059WS02003060 CONDUIT    225.52     0  03:12      0.65    0.15    0.80
  WS02003060WS02003069 CONDUIT   1469.42     0  01:55      2.07    0.58    0.60
  WS02003066WSF200     CONDUIT   1262.66     0  01:51      3.35    0.21    0.38
  WS02003067WS02003066 CONDUIT   1262.32     0  01:51      1.97    0.40    0.55
  WS02003069WS02003072 CONDUIT   1468.84     0  01:56      1.88    0.71    0.65
  WS02003072WS02003073 CONDUIT   1468.28     0  01:57      2.03    3.17    0.61
  WS02004138WS02004139 CONDUIT    190.00     0  00:32      2.15    0.04    0.41
  WS02004139WS02001211 CONDUIT    200.19     0  01:48      0.54    0.25    0.60
  WS02004401WS02004402 CONDUIT   1260.52     0  01:51      1.60    1.51    1.00
  WS02004402WS02004403 CONDUIT   1260.20     0  01:51      1.60    1.81    1.00
  WS02004403WS02004404 CONDUIT   1260.96     0  01:51      1.61    0.91    1.00
  WS02004404WS02004405 CONDUIT   1262.17     0  01:48      1.61   12.37    1.00
  WS02004405WS02004406 CONDUIT   1263.24     0  01:48      1.61    2.49    1.00
  WS02004406WS02004407 CONDUIT   1263.37     0  01:48      1.82    0.56    0.93
  WS02004407WS02004409 CONDUIT   1261.97     0  01:50      1.96    0.45    0.93
  WS02004409WS02004410 CONDUIT   1261.71     0  01:50      1.61    1.63    1.00
  WS02004410WS02004411 CONDUIT   1262.14     0  01:50      1.61    1.72    1.00
  WS02004411WS02004412 CONDUIT   1261.88     0  01:50      1.61    1.79    1.00
  WS02004412WS02004413 CONDUIT   1261.66     0  01:51      1.61    0.84    1.00
  WS02004413WS02003067 CONDUIT   1261.63     0  01:51      1.97    0.54    0.76
  WS02006109WS02006110 CONDUIT   1122.23     0  02:04      2.23    2.16    1.00
  WS02006110WS02006113 CONDUIT   1122.50     0  02:04      2.23    1.02    1.00
  WS02006111WS02006112 CONDUIT   1122.29     0  02:04      2.23    0.53    1.00
  WS02006112WS02006115 CONDUIT   1260.58     0  01:50      1.61    0.74    1.00
  WS02006113WS02006111 CONDUIT   1122.44     0  02:04      2.72    1.35    1.00
  WS02006115WS02006116 CONDUIT   1260.48     0  01:51      1.60    1.62    1.00
  WS02006116WS02004401 CONDUIT   1260.41     0  01:50      1.60    1.74    1.00
  WS02006228WS02006109 CONDUIT   1252.11     0  01:51      2.49    5.47    1.00
  WS02006229WS02006228 CONDUIT   1252.53     0  01:52      2.49    4.15    1.00
  WS02006230WS02006229 CONDUIT    980.94     0  01:51      2.55   21.83    1.00
  WS02006231WS02006230 CONDUIT    565.60     0  03:55      1.50    8.58    1.00
  WS02006232WS02006231 CONDUIT    563.21     0  04:00      1.46    1.18    1.00
  WS02006234WS02006232 CONDUIT    562.32     0  04:00      1.46    1.14    1.00
  WS02006235WS02006234 CONDUIT    558.54     0  04:00      1.45    5.89    1.00
  WS02006238WS02006235 CONDUIT    435.63     0  04:10      1.45    0.97    1.00
  WS02006239WS02006238 CONDUIT    428.59     0  04:01      1.12    1.37    1.00
  WS02006240WS02006239 CONDUIT    428.94     0  03:56      1.26    1.35    1.00
  WS02006242WS02006240 CONDUIT    429.33     0  03:55      1.14    1.71    1.00
  WS02006243WS02006242 CONDUIT    432.16     0  03:55      1.34    0.92    1.00
  WS02006245WS02006243 CONDUIT    432.89     0  03:55      1.39    1.28    1.00
  WS02006247WS02006245 CONDUIT    432.38     0  03:55      1.37    3.43    1.00
  WS02006248WS02006247 CONDUIT    431.28     0  03:55      1.41    0.94    1.00
  WS02006249WS02006248 CONDUIT    430.29     0  03:55      1.38    2.36    1.00
  WS02006251WS02006249 CONDUIT   1338.70     0  01:50      3.48    3.86    1.00
  WS02006252WS02006251 CONDUIT    404.38     0  02:18     17.97    1.48    1.00
  WS02006253WS02006251 CONDUIT   1498.82     0  01:50      3.89    4.49    1.00
  WS02006256WS02006235 CONDUIT    288.93     0  00:00      4.23    3.06    1.00
  WS02006280WS02006229 CONDUIT   2234.20     0  01:51      4.22    0.48    1.00
  WS02006284WS02006280 CONDUIT   2232.57     0  01:51      2.96    0.93    1.00
  WS02006287WS02006284 CONDUIT   2232.56     0  01:51      2.84    1.03    1.00
  WSF200WS02003060     CONDUIT   1263.88     0  01:51      2.45    0.28    0.49
  YS02001580YS02001583 CONDUIT    167.17     0  01:48      0.89    0.65    1.00
  YS02001583YS02001586 CONDUIT    206.33     0  01:48      0.92    0.31    1.00
  YS02001586YS02001590 CONDUIT    318.10     0  01:56      1.27    0.56    1.00
  YS02001590YS02001593 CONDUIT    318.14     0  01:53      1.13    2.00    1.00
  YS02001593YS02001596 CONDUIT    318.03     0  01:56      1.72    0.50    1.00
  YS02001596YS02001600 CONDUIT    318.09     0  01:53      1.19    0.62    1.00
  YS02001600YS02001601 CONDUIT    318.08     0  02:02      1.12    0.55    1.00
  YS02001601YS02001602 CONDUIT    573.07     0  01:47      2.03    2.07    1.00
  YS02001602YS02001605 CONDUIT    572.90     0  01:47      2.03   12.12    1.00
  YS02001605YS02001607 CONDUIT    572.49     0  01:47      2.02    3.14    1.00
  YS02001607YS02001610 CONDUIT    539.44     0  01:48      0.71    0.51    1.00
  YS02001610YS02001613 CONDUIT    538.50     0  01:48      0.69    0.62    1.00
  YS02001613YS02001616 CONDUIT    535.18     0  01:48      0.68    0.46    1.00
  YS02001616YS02001619 CONDUIT    497.14     0  01:48      0.67    0.86    1.00
  YS02001619YS02001622 CONDUIT    923.11     0  01:48      1.26    1.36    1.00
  YS02001622YS02001625 CONDUIT    915.97     0  01:48      1.17    0.49    1.00
  YS02001625YS02001629 CONDUIT    911.36     0  01:49      1.16    0.43    1.00
  YS02001629YS02163301 CONDUIT    910.00     0  01:49      1.16    1.12    1.00
  YS02001633YS02163601 CONDUIT   1421.60     0  01:49      1.81    1.49    1.00
  YS02001641YS02001644 CONDUIT   1422.54     0  01:49      1.81    4.60    1.00
  YS02001644YS02001647 CONDUIT   1896.48     0  01:49      2.42    1.11    1.00
  YS02001647YS02001649 CONDUIT   1855.93     0  01:49      2.41    0.98    1.00
  YS02001649YS02001757 CONDUIT   2164.80     0  01:49      2.76    1.31    1.00
  YS02001652YS02001649 CONDUIT    575.67     0  01:53      0.83    0.29    1.00
  YS02001655YS02001652 CONDUIT    575.41     0  01:53      1.45    0.28    1.00
  YS02001658YS02001655 CONDUIT    576.34     0  01:53      2.05    0.24    1.00
  YS02001661YS02001658 CONDUIT    693.51     0  01:59      2.40    0.27    0.86
  YS02001664YS02001661 CONDUIT    506.57     0  01:51      2.31    0.16    0.52
  YS02001745YS02001748 CONDUIT    500.56     0  01:53      2.28    0.19    0.61
  YS02001748YS02001751 CONDUIT    471.12     0  01:54      1.88    0.24    0.98
  YS02001751YS02001754 CONDUIT    408.08     0  01:52      1.58    0.20    1.00
  YS02001754YS02001757 CONDUIT    408.46     0  01:52      0.55    0.16    1.00
  YS02001757CaochengTiaoxuchi CONDUIT   3263.63     0  01:53      4.19    1.41    1.00
  YS02001759YS02001757 CONDUIT   1188.69     0  01:50      1.51    0.84    1.00
  YS02001762YS02001759 CONDUIT    717.35     0  01:50      0.91    0.83    1.00
  YS02001765YS02001762 CONDUIT    707.56     0  01:50      0.90    0.66    1.00
  YS02001767YS02001765 CONDUIT    698.88     0  01:50      0.89    0.88    1.00
  YS02001770YS02001767 CONDUIT    692.26     0  01:50      0.88    2.74    1.00
  YS02001774YS02001770 CONDUIT    367.07     0  01:50      0.47    0.23    1.00
  YS02001779YS02001774 CONDUIT    368.96     0  01:50      0.48    0.19    1.00
  YS02001783YS02001784 CONDUIT   1153.28     0  01:50      2.29    1.59    1.00
  YS02001784YS02001785 CONDUIT   1154.24     0  01:50      2.30    2.69    1.00
  YS02001786YS02001788 CONDUIT   1157.38     0  01:50      2.50    2.23    0.89
  YS02001788YS02001790 CONDUIT   1165.61     0  01:50      2.71    0.86    0.84
  YS02001790YS02001791 CONDUIT   1284.32     0  01:52      3.43    1.40    0.70
  YS02001791YS02001793 CONDUIT   1226.39     0  01:56      6.74    0.53    0.45
  YS02001793JiankangQianchi CONDUIT   1243.89     0  01:56      2.50    0.10    0.65
  YS02001882YS02001884 CONDUIT    101.04     0  01:48      0.13    0.12    1.00
  YS02001884YS02001887 CONDUIT    133.35     0  01:48      0.17    0.18    1.00
  YS02001887YS02001890 CONDUIT    543.12     0  01:49      0.69    0.93    1.00
  YS02001890YS02001895 CONDUIT    553.26     0  01:49      0.70    0.26    1.00
  YS02001895YS02001898 CONDUIT    561.28     0  01:49      0.71    0.97    1.00
  YS02001898YS02001901 CONDUIT    572.77     0  01:49      0.73    0.37    1.00
  YS02001901YS02001904 CONDUIT    576.52     0  01:49      0.73    0.89    1.00
  YS02001904YS02001907 CONDUIT    579.86     0  01:49      0.74    0.20    1.00
  YS02001907YS02006553 CONDUIT    790.34     0  02:04      0.88    0.93    1.00
  YS02001910YS02001907 CONDUIT   1004.97     0  01:51      1.28    0.57    1.00
  YS02001915YS02001910 CONDUIT   1004.73     0  01:51      1.28    0.50    1.00
  YS02001918YS02001915 CONDUIT    592.97     0  01:49      0.79    0.33    1.00
  YS02001920YS02001918 CONDUIT    509.78     0  01:49      0.65    0.49    1.00
  YS02001923YS02001920 CONDUIT    496.51     0  01:49      0.74    0.22    1.00
  YS02001926YS02001923 CONDUIT    713.36     0  01:49      1.17    1.02    1.00
  YS02001929YS02001926 CONDUIT    529.68     0  01:50      1.18    0.25    1.00
  YS02006553YS02006556 CONDUIT    791.13     0  02:04      1.01    0.68    1.00
  YS02006556YS02006558 CONDUIT    792.64     0  02:04      1.01    0.63    1.00
  YS02006558YS02006561 CONDUIT   1175.42     0  01:49      4.16    2.60    1.00
  YS02006561YS02001783 CONDUIT   1152.94     0  01:50      2.29    0.60    1.00
  YS02163301YS02001633 CONDUIT    909.31     0  01:49      1.16    0.85    1.00
  YS02163601YS02164001 CONDUIT   1421.14     0  01:49      1.81    1.26    1.00
  YS02164001YS02001641 CONDUIT   1422.42     0  01:49      1.81    1.94    1.00
  YSB1154YSB6556       CONDUIT    270.21     0  01:51      0.70    0.49    1.00
  YSB1171HS02004479    CONDUIT    510.31     0  01:50      1.02    0.34    1.00
  YSB1174YSB1171       CONDUIT    244.02     0  01:50      0.63    0.37    1.00
  YSB6556YSB1171       CONDUIT    270.43     0  01:51      0.70    0.28    1.00
  CC-R1                PUMP       683.00     0  00:00              1.00
  CC-R2                PUMP       683.00     0  00:00              1.00
  CC-S1                PUMP       200.00     0  00:00              1.00
  CC-S2                PUMP       200.00     0  00:00              1.00
  JK-R1                PUMP      1000.00     0  00:00              1.00
  JK-R2                PUMP      1000.00     0  00:00              1.00
  JK-S                 PUMP       300.00     0  00:00              1.00
  XR-1                 PUMP        95.00     0  00:00              1.00
  XR-2                 PUMP        95.00     0  00:00              1.00
  XR-3                 PUMP        95.00     0  00:00              1.00
  XR-4                 PUMP        95.00     0  00:00              1.00
  
  
  ***************************
  Flow Classification Summary
  ***************************
  
  -------------------------------------------------------------------------------------
                      Adjusted    ---------- Fraction of Time in Flow Class ---------- 
                       /Actual         Up    Down  Sub   Sup   Up    Down  Norm  Inlet 
  Conduit               Length    Dry  Dry   Dry   Crit  Crit  Crit  Crit  Ltd   Ctrl  
  -------------------------------------------------------------------------------------
  1                       1.00   0.00  0.00  0.00  0.00  1.00  0.00  0.00  0.47  0.00
  HS02004478WS02006287    1.00   0.10  0.00  0.00  0.66  0.24  0.00  0.00  0.61  0.00
  HS02004479HS02004480    1.00   0.02  0.00  0.00  0.98  0.00  0.00  0.00  0.11  0.00
  HS02004480HS02004478    1.00   0.09  0.00  0.00  0.62  0.00  0.00  0.29  0.00  0.00
  HS02004770HS02004777    1.00   0.00  0.09  0.00  0.91  0.00  0.00  0.00  0.03  0.00
  HS02004777HS02004785    1.00   0.00  0.00  0.00  1.00  0.00  0.00  0.00  0.12  0.00
  HS02004785HS02004788    1.00   0.00  0.00  0.00  1.00  0.00  0.00  0.00  0.00  0.00
  HS02004788HS02004792    1.00   0.00  0.00  0.00  0.99  0.01  0.00  0.00  0.92  0.00
  HS02004792HS02004799    1.00   0.00  0.00  0.00  0.99  0.01  0.00  0.00  0.89  0.00
  HS02004799HS02004480    1.00   0.00  0.02  0.00  0.90  0.00  0.08  0.00  0.00  0.00
  HS02004802HS02004478    1.00   0.09  0.00  0.00  0.90  0.00  0.00  0.00  0.03  0.00
  HS02004807HS02004802    1.00   0.09  0.00  0.00  0.90  0.00  0.00  0.01  0.00  0.00
  HS02004817HS02004807    1.00   0.00  0.09  0.00  0.91  0.00  0.00  0.00  0.01  0.00
  HS02004817HS02004824    1.00   0.00  0.00  0.00  1.00  0.00  0.00  0.00  0.84  0.00
  HS02004824HS02004830    1.00   0.00  0.00  0.00  1.00  0.00  0.00  0.00  0.01  0.00
  HS02004830HS02004837    1.00   0.00  0.00  0.00  1.00  0.00  0.00  0.00  0.91  0.00
  HS02004837HS02004842    1.00   0.00  0.00  0.00  1.00  0.00  0.00  0.00  0.11  0.00
  HS02004842HS02004848    1.00   0.00  0.09  0.00  0.91  0.00  0.00  0.00  0.58  0.00
  HS02004848HS02004852    1.00   0.09  0.00  0.00  0.91  0.00  0.00  0.00  0.72  0.00
  HS02004852HS02004856    1.00   0.09  0.00  0.00  0.90  0.00  0.00  0.00  0.69  0.00
  HS02004856HS02004862    1.00   0.00  0.11  0.00  0.89  0.00  0.00  0.00  0.76  0.00
  HS02004862HS02004870    1.00   0.00  0.00  0.00  1.00  0.00  0.00  0.00  0.03  0.00
  HS02004870HS02004876    1.00   0.00  0.00  0.00  0.99  0.01  0.00  0.00  0.88  0.00
  HS02004876HS02004881    1.00   0.01  0.00  0.00  0.80  0.18  0.00  0.00  0.00  0.00
  HS02004881HS02006253    1.00   0.01  0.02  0.00  0.73  0.01  0.00  0.23  0.43  0.00
  HS02004901HS02004770    1.00   0.09  0.00  0.00  0.91  0.00  0.00  0.00  0.00  0.00
  WS02001211WS02001212    1.00   0.00  0.02  0.00  0.98  0.00  0.00  0.00  0.00  0.00
  WS02001212WS02001213    1.00   0.02  0.00  0.00  0.58  0.00  0.40  0.00  0.00  0.00
  WS02001213WS02003059    1.00   0.00  0.00  0.00  1.00  0.00  0.00  0.00  0.00  0.00
  WS02003059WS02003060    1.00   0.00  0.00  0.00  1.00  0.00  0.00  0.00  0.03  0.00
  WS02003060WS02003069    1.00   0.00  0.00  0.00  0.98  0.02  0.00  0.00  0.41  0.00
  WS02003066WSF200        1.00   0.06  0.00  0.00  0.00  0.94  0.00  0.00  0.63  0.00
  WS02003067WS02003066    1.00   0.06  0.00  0.00  0.94  0.00  0.00  0.00  0.00  0.00
  WS02003069WS02003072    1.00   0.00  0.00  0.00  1.00  0.00  0.00  0.00  0.46  0.00
  WS02003072WS02003073    1.00   0.00  0.00  0.00  0.00  0.00  0.00  1.00  0.00  0.00
  WS02004138WS02004139    1.00   0.00  0.00  0.00  0.98  0.00  0.00  0.01  0.98  0.00
  WS02004139WS02001211    1.00   0.00  0.00  0.00  1.00  0.00  0.00  0.00  0.00  0.00
  WS02004401WS02004402    1.00   0.02  0.00  0.00  0.98  0.00  0.00  0.00  0.00  0.00
  WS02004402WS02004403    1.00   0.02  0.00  0.00  0.98  0.00  0.00  0.00  0.00  0.00
  WS02004403WS02004404    1.00   0.00  0.02  0.00  0.98  0.00  0.00  0.00  0.00  0.00
  WS02004404WS02004405    1.00   0.00  0.00  0.00  1.00  0.00  0.00  0.00  0.01  0.00
  WS02004405WS02004406    1.00   0.00  0.00  0.00  1.00  0.00  0.00  0.00  0.00  0.00
  WS02004406WS02004407    1.00   0.00  0.03  0.00  0.97  0.00  0.00  0.00  0.00  0.00
  WS02004407WS02004409    1.00   0.03  0.00  0.00  0.94  0.02  0.00  0.00  0.83  0.00
  WS02004409WS02004410    1.00   0.03  0.00  0.00  0.96  0.00  0.00  0.00  0.00  0.00
  WS02004410WS02004411    1.00   0.04  0.00  0.00  0.96  0.00  0.00  0.00  0.00  0.00
  WS02004411WS02004412    1.00   0.04  0.00  0.00  0.96  0.00  0.00  0.00  0.00  0.00
  WS02004412WS02004413    1.00   0.04  0.00  0.00  0.95  0.01  0.00  0.00  0.00  0.00
  WS02004413WS02003067    1.00   0.05  0.01  0.00  0.00  0.00  0.94  0.00  0.00  0.00
  WS02006109WS02006110    1.00   0.00  0.01  0.00  0.99  0.00  0.01  0.00  0.00  0.00
  WS02006110WS02006113    1.00   0.01  0.01  0.00  0.99  0.00  0.00  0.00  0.00  0.00
  WS02006111WS02006112    1.00   0.01  0.00  0.00  0.98  0.00  0.00  0.00  0.77  0.00
  WS02006112WS02006115    1.00   0.01  0.00  0.00  0.98  0.00  0.00  0.00  0.00  0.00
  WS02006113WS02006111    1.00   0.01  0.00  0.00  0.20  0.79  0.00  0.00  0.12  0.00
  WS02006115WS02006116    1.00   0.02  0.00  0.00  0.98  0.00  0.00  0.00  0.00  0.00
  WS02006116WS02004401    1.00   0.02  0.00  0.00  0.98  0.00  0.00  0.00  0.00  0.00
  WS02006228WS02006109    1.00   0.00  0.00  0.00  1.00  0.00  0.00  0.00  0.01  0.00
  WS02006229WS02006228    1.00   0.00  0.00  0.00  0.99  0.00  0.00  0.00  0.00  0.00
  WS02006230WS02006229    1.00   0.00  0.00  0.00  0.99  0.00  0.00  0.01  0.03  0.00
  WS02006231WS02006230    1.00   0.00  0.00  0.00  0.53  0.00  0.47  0.00  0.00  0.00
  WS02006232WS02006231    1.00   0.00  0.00  0.00  1.00  0.00  0.00  0.00  0.00  0.00
  WS02006234WS02006232    1.00   0.00  0.00  0.00  1.00  0.00  0.00  0.00  0.02  0.00
  WS02006235WS02006234    1.00   0.00  0.00  0.00  0.95  0.00  0.05  0.00  0.00  0.00
  WS02006238WS02006235    1.00   0.00  0.00  0.00  1.00  0.00  0.00  0.00  0.00  0.00
  WS02006239WS02006238    1.00   0.00  0.00  0.00  1.00  0.00  0.00  0.00  0.06  0.00
  WS02006240WS02006239    1.00   0.00  0.00  0.00  0.88  0.00  0.00  0.12  0.02  0.00
  WS02006242WS02006240    1.00   0.00  0.00  0.00  0.99  0.00  0.00  0.00  0.00  0.00
  WS02006243WS02006242    1.00   0.00  0.00  0.00  1.00  0.00  0.00  0.00  0.43  0.00
  WS02006245WS02006243    1.00   0.00  0.00  0.00  0.94  0.00  0.00  0.06  0.01  0.00
  WS02006247WS02006245    1.00   0.00  0.00  0.00  0.99  0.00  0.00  0.01  0.00  0.00
  WS02006248WS02006247    1.00   0.00  0.00  0.00  1.00  0.00  0.00  0.00  0.42  0.00
  WS02006249WS02006248    1.00   0.00  0.00  0.00  0.78  0.00  0.22  0.00  0.00  0.00
  WS02006251WS02006249    1.00   0.00  0.00  0.00  1.00  0.00  0.00  0.00  0.40  0.00
  WS02006252WS02006251    1.00   0.00  0.18  0.00  0.29  0.00  0.53  0.00  0.00  0.00
  WS02006253WS02006251    1.00   0.00  0.00  0.00  1.00  0.00  0.00  0.00  0.01  0.00
  WS02006256WS02006235    1.00   0.00  0.00  0.00  0.99  0.01  0.00  0.00  0.00  0.00
  WS02006280WS02006229    1.00   0.10  0.00  0.00  0.14  0.07  0.00  0.70  0.03  0.00
  WS02006284WS02006280    1.00   0.10  0.00  0.00  0.09  0.01  0.00  0.80  0.00  0.00
  WS02006287WS02006284    1.00   0.08  0.02  0.00  0.59  0.31  0.00  0.00  0.66  0.00
  WSF200WS02003060        1.00   0.00  0.06  0.00  0.50  0.44  0.00  0.00  0.49  0.00
  YS02001580YS02001583    1.00   0.20  0.62  0.00  0.18  0.00  0.00  0.00  0.70  0.00
  YS02001583YS02001586    1.00   0.24  0.51  0.00  0.25  0.00  0.00  0.00  0.70  0.00
  YS02001586YS02001590    1.00   0.09  0.00  0.00  0.47  0.08  0.00  0.36  0.35  0.00
  YS02001590YS02001593    1.00   0.09  0.00  0.00  0.10  0.00  0.80  0.00  0.00  0.00
  YS02001593YS02001596    1.00   0.09  0.00  0.00  0.12  0.01  0.00  0.78  0.02  0.00
  YS02001596YS02001600    1.00   0.10  0.00  0.00  0.22  0.02  0.00  0.67  0.06  0.00
  YS02001600YS02001601    1.00   0.09  0.00  0.00  0.90  0.00  0.00  0.00  0.62  0.00
  YS02001601YS02001602    1.00   0.09  0.00  0.00  0.90  0.00  0.00  0.00  0.00  0.00
  YS02001602YS02001605    1.00   0.10  0.00  0.00  0.90  0.00  0.00  0.00  0.00  0.00
  YS02001605YS02001607    1.00   0.10  0.00  0.00  0.90  0.00  0.00  0.00  0.00  0.00
  YS02001607YS02001610    1.00   0.09  0.00  0.00  0.90  0.00  0.00  0.00  0.02  0.00
  YS02001610YS02001613    1.00   0.09  0.00  0.00  0.91  0.00  0.00  0.00  0.01  0.00
  YS02001613YS02001616    1.00   0.09  0.00  0.00  0.91  0.00  0.00  0.00  0.01  0.00
  YS02001616YS02001619    1.00   0.09  0.00  0.00  0.91  0.00  0.00  0.00  0.00  0.00
  YS02001619YS02001622    1.00   0.09  0.00  0.00  0.91  0.00  0.00  0.00  0.30  0.00
  YS02001622YS02001625    1.00   0.09  0.00  0.00  0.91  0.00  0.00  0.00  0.05  0.00
  YS02001625YS02001629    1.00   0.09  0.02  0.00  0.15  0.00  0.74  0.00  0.00  0.00
  YS02001629YS02163301    1.00   0.10  0.00  0.00  0.89  0.00  0.00  0.00  0.00  0.00
  YS02001633YS02163601    1.00   0.00  0.00  0.00  1.00  0.00  0.00  0.00  0.15  0.00
  YS02001641YS02001644    1.00   0.00  0.00  0.00  1.00  0.00  0.00  0.00  0.00  0.00
  YS02001644YS02001647    1.00   0.00  0.11  0.00  0.89  0.00  0.00  0.00  0.00  0.00
  YS02001647YS02001649    1.00   0.00  0.11  0.00  0.47  0.41  0.00  0.00  0.58  0.00
  YS02001649YS02001757    1.00   0.00  0.00  0.00  0.64  0.36  0.00  0.00  0.43  0.00
  YS02001652YS02001649    1.00   0.00  0.00  0.00  0.98  0.02  0.00  0.00  0.75  0.00
  YS02001655YS02001652    1.00   0.00  0.00  0.00  0.18  0.02  0.00  0.80  0.07  0.00
  YS02001658YS02001655    1.00   0.00  0.10  0.00  0.65  0.26  0.00  0.00  0.71  0.00
  YS02001661YS02001658    1.00   0.10  0.00  0.00  0.42  0.48  0.00  0.00  0.74  0.00
  YS02001664YS02001661    1.00   0.09  0.00  0.00  0.76  0.15  0.00  0.00  0.86  0.00
  YS02001745YS02001748    1.00   0.00  0.00  0.00  0.06  0.01  0.00  0.92  0.05  0.00
  YS02001748YS02001751    1.00   0.00  0.00  0.00  0.77  0.23  0.00  0.00  0.79  0.00
  YS02001751YS02001754    1.00   0.00  0.00  0.00  0.15  0.01  0.00  0.84  0.05  0.00
  YS02001754YS02001757    1.00   0.00  0.00  0.00  1.00  0.00  0.00  0.00  0.84  0.00
  YS02001757CaochengTiaoxuchi    1.00   0.00  0.00  0.00  0.97  0.03  0.00  0.00  0.70  0.00
  YS02001759YS02001757    1.00   0.00  0.00  0.00  1.00  0.00  0.00  0.00  0.57  0.00
  YS02001762YS02001759    1.00   0.00  0.00  0.00  1.00  0.00  0.00  0.00  0.05  0.00
  YS02001765YS02001762    1.00   0.00  0.00  0.00  1.00  0.00  0.00  0.00  0.70  0.00
  YS02001767YS02001765    1.00   0.00  0.00  0.00  1.00  0.00  0.00  0.00  0.01  0.00
  YS02001770YS02001767    1.00   0.00  0.00  0.00  1.00  0.00  0.00  0.00  0.00  0.00
  YS02001774YS02001770    1.00   0.00  0.09  0.00  0.82  0.00  0.08  0.00  0.03  0.00
  YS02001779YS02001774    1.00   0.00  0.00  0.00  1.00  0.00  0.00  0.00  0.80  0.00
  YS02001783YS02001784    1.00   0.00  0.12  0.00  0.88  0.00  0.00  0.00  0.56  0.00
  YS02001784YS02001785    1.00   0.00  0.00  0.00  1.00  0.00  0.00  0.00  0.17  0.00
  YS02001786YS02001788    1.00   0.00  0.00  0.00  0.74  0.26  0.00  0.00  0.00  0.00
  YS02001788YS02001790    1.00   0.00  0.00  0.00  0.15  0.85  0.00  0.00  0.83  0.00
  YS02001790YS02001791    1.00   0.00  0.00  0.00  0.01  0.99  0.00  0.00  0.17  0.00
  YS02001791YS02001793    1.00   0.00  0.00  0.00  0.00  1.00  0.00  0.00  0.01  0.00
  YS02001793JiankangQianchi    1.00   0.00  0.00  0.00  0.98  0.02  0.00  0.00  0.98  0.00
  YS02001882YS02001884    1.00   0.10  0.00  0.00  0.90  0.00  0.00  0.00  0.00  0.00
  YS02001884YS02001887    1.00   0.05  0.04  0.00  0.91  0.00  0.00  0.00  0.00  0.00
  YS02001887YS02001890    1.00   0.00  0.00  0.00  0.98  0.00  0.02  0.00  0.00  0.00
  YS02001890YS02001895    1.00   0.00  0.10  0.00  0.89  0.00  0.00  0.00  0.00  0.00
  YS02001895YS02001898    1.00   0.11  0.00  0.00  0.87  0.00  0.02  0.00  0.00  0.00
  YS02001898YS02001901    1.00   0.11  0.00  0.00  0.89  0.00  0.00  0.00  0.01  0.00
  YS02001901YS02001904    1.00   0.11  0.00  0.00  0.89  0.00  0.00  0.00  0.00  0.00
  YS02001904YS02001907    1.00   0.00  0.10  0.00  0.89  0.00  0.00  0.00  0.00  0.00
  YS02001907YS02006553    1.00   0.00  0.01  0.00  0.98  0.00  0.00  0.00  0.00  0.00
  YS02001910YS02001907    1.00   0.00  0.00  0.00  0.98  0.00  0.00  0.02  0.12  0.00
  YS02001915YS02001910    1.00   0.00  0.00  0.00  0.98  0.02  0.00  0.00  0.16  0.00
  YS02001918YS02001915    1.00   0.00  0.00  0.00  0.98  0.01  0.00  0.00  0.77  0.00
  YS02001920YS02001918    1.00   0.00  0.00  0.00  1.00  0.00  0.00  0.00  0.00  0.00
  YS02001923YS02001920    1.00   0.00  0.00  0.00  1.00  0.00  0.00  0.00  0.94  0.00
  YS02001926YS02001923    1.00   0.00  0.07  0.00  0.04  0.00  0.89  0.00  0.00  0.00
  YS02001929YS02001926    1.00   0.00  0.09  0.00  0.91  0.00  0.00  0.00  0.84  0.00
  YS02006553YS02006556    1.00   0.01  0.00  0.00  0.99  0.00  0.00  0.00  0.03  0.00
  YS02006556YS02006558    1.00   0.00  0.00  0.00  1.00  0.00  0.00  0.00  0.00  0.00
  YS02006558YS02006561    1.00   0.12  0.00  0.00  0.04  0.84  0.00  0.00  0.20  0.00
  YS02006561YS02001783    1.00   0.12  0.00  0.00  0.07  0.81  0.00  0.00  0.71  0.00
  YS02163301YS02001633    1.00   0.00  0.10  0.00  0.90  0.00  0.00  0.00  0.00  0.00
  YS02163601YS02164001    1.00   0.00  0.07  0.00  0.93  0.00  0.00  0.00  0.00  0.00
  YS02164001YS02001641    1.00   0.00  0.07  0.00  0.93  0.00  0.00  0.00  0.06  0.00
  YSB1154YSB6556          1.00   0.09  0.00  0.00  0.91  0.00  0.00  0.00  0.02  0.00
  YSB1171HS02004479       1.00   0.02  0.00  0.00  0.96  0.00  0.00  0.01  0.10  0.00
  YSB1174YSB1171          1.00   0.03  0.04  0.00  0.92  0.00  0.00  0.00  0.00  0.00
  YSB6556YSB1171          1.00   0.03  0.07  0.00  0.91  0.00  0.00  0.00  0.00  0.00
  
  
  *************************
  Conduit Surcharge Summary
  *************************
  
  ----------------------------------------------------------------------------
                                                           Hours        Hours 
                         --------- Hours Full --------   Above Full   Capacity
  Conduit                Both Ends  Upstream  Dnstream   Normal Flow   Limited
  ----------------------------------------------------------------------------
  HS02004478WS02006287        0.33      0.33      0.48      0.01         0.01
  HS02004479HS02004480        0.49      0.49      0.51      0.01         0.01
  HS02004480HS02004478        0.43      0.49      0.43      1.55         0.43
  HS02004770HS02004777        0.41      0.41      0.41      0.10         0.07
  HS02004777HS02004785        0.36      0.36      0.41      0.01         0.01
  HS02004785HS02004788        0.34      0.36      0.34      1.23         0.33
  HS02004788HS02004792        0.34      0.34      0.46      0.01         0.01
  HS02004792HS02004799        0.46      0.46      0.56      0.01         0.01
  HS02004799HS02004480        0.49      0.49      0.56      0.64         0.01
  HS02004802HS02004478        0.44      0.44      0.50      0.01         0.01
  HS02004807HS02004802        0.48      0.48      0.49      0.08         0.08
  HS02004817HS02004807        0.48      0.48      1.01      0.01         0.01
  HS02004817HS02004824        0.35      0.35      1.01      0.01         0.01
  HS02004824HS02004830        0.33      0.33      0.35      0.01         0.01
  HS02004830HS02004837        0.28      0.28      0.33      0.01         0.01
  HS02004837HS02004842        0.28      0.28      0.41      0.01         0.01
  HS02004842HS02004848        0.26      0.26      0.41      0.01         0.01
  HS02004848HS02004852        0.26      0.26      0.28      0.02         0.01
  HS02004852HS02004856        0.28      0.28      0.31      0.02         0.01
  HS02004856HS02004862        0.26      0.27      0.30      0.01         0.01
  HS02004862HS02004870        0.30      0.30      0.32      0.02         0.01
  HS02004870HS02004876        0.32      0.32      0.39      0.01         0.01
  HS02004876HS02004881        0.37      0.39      0.37      1.28         0.37
  HS02004881HS02006253        0.37      0.37      2.24      0.01         0.01
  HS02004901HS02004770        0.41      0.41      0.41      0.01         0.01
  WS02003072WS02003073        0.01      0.01      0.01      3.45         0.01
  WS02004401WS02004402        1.48      1.48      1.51      1.25         1.25
  WS02004402WS02004403        1.50      1.51      1.51      1.49         1.47
  WS02004403WS02004404        1.51      1.51      1.68      0.01         0.01
  WS02004404WS02004405        1.65      1.68      1.65      4.49         1.65
  WS02004405WS02004406        1.62      1.65      1.62      2.10         1.62
  WS02004406WS02004407        0.01      0.01      1.62      0.01         0.01
  WS02004407WS02004409        0.01      0.01      0.80      0.01         0.01
  WS02004409WS02004410        0.75      0.80      0.75      1.45         0.75
  WS02004410WS02004411        0.69      0.75      0.69      1.46         0.69
  WS02004411WS02004412        0.59      0.69      0.59      1.48         0.59
  WS02004412WS02004413        0.59      0.59      1.10      0.01         0.01
  WS02004413WS02003067        0.01      0.01      1.10      0.01         0.01
  WS02006109WS02006110        1.95      1.95      2.91      1.99         0.01
  WS02006110WS02006113        1.03      1.03      2.83      0.28         0.01
  WS02006111WS02006112        0.99      0.99      3.31      0.01         0.01
  WS02006112WS02006115        1.45      1.45      2.23      0.01         0.01
  WS02006113WS02006111        1.01      1.03      1.01      1.20         1.01
  WS02006115WS02006116        1.46      1.46      1.46      1.45         1.43
  WS02006116WS02004401        1.48      1.48      1.48      1.48         1.46
  WS02006228WS02006109        2.76      2.91      2.76      3.77         2.76
  WS02006229WS02006228        2.73      2.79      2.73      3.28         2.73
  WS02006230WS02006229        3.08      3.21      3.08      4.64         2.28
  WS02006231WS02006230        1.78      1.78      2.06      4.34         0.78
  WS02006232WS02006231        2.00      2.00      2.82      0.09         0.11
  WS02006234WS02006232        2.59      2.59      2.82      0.07         0.11
  WS02006235WS02006234        2.55      2.55      2.60      4.15         0.78
  WS02006238WS02006235        2.62      2.62      2.81      0.01         0.25
  WS02006239WS02006238        2.66      2.76      2.67      2.21         1.15
  WS02006240WS02006239        2.60      2.64      2.60      2.15         1.07
  WS02006242WS02006240        2.61      2.61      2.89      2.65         0.71
  WS02006243WS02006242        2.65      2.65      2.82      0.01         0.05
  WS02006245WS02006243        2.63      2.65      2.63      1.47         1.06
  WS02006247WS02006245        2.63      2.70      2.63      3.98         1.63
  WS02006248WS02006247        2.62      2.62      2.67      0.01         0.07
  WS02006249WS02006248        2.60      2.60      2.64      3.10         0.01
  WS02006251WS02006249        2.63      2.65      2.64      2.97         2.57
  WS02006252WS02006251        3.05      3.05      3.08      2.71         0.01
  WS02006253WS02006251        2.64      2.64      2.70      0.60         0.01
  WS02006256WS02006235        4.32      4.37      7.45      0.68         0.01
  WS02006280WS02006229        0.59      0.59      0.74      0.01         0.01
  WS02006284WS02006280        0.50      0.50      0.58      0.01         0.01
  WS02006287WS02006284        0.42      0.42      0.51      0.14         0.14
  YS02001580YS02001583        0.39      0.39      0.44      0.01         0.01
  YS02001583YS02001586        0.40      0.40      0.54      0.01         0.01
  YS02001586YS02001590        0.55      0.55      0.61      0.01         0.01
  YS02001590YS02001593        0.62      0.62      0.63      0.66         0.01
  YS02001593YS02001596        0.62      0.62      0.71      0.01         0.01
  YS02001596YS02001600        0.75      0.75      0.84      0.01         0.01
  YS02001600YS02001601        0.90      0.90      1.25      0.01         0.01
  YS02001601YS02001602        1.10      1.10      1.31      0.86         0.01
  YS02001602YS02001605        1.04      1.04      1.10      2.06         0.01
  YS02001605YS02001607        0.99      1.04      0.99      1.19         0.99
  YS02001607YS02001610        0.58      0.58      0.60      0.01         0.01
  YS02001610YS02001613        0.57      0.57      0.60      0.01         0.01
  YS02001613YS02001616        0.53      0.53      0.57      0.01         0.01
  YS02001616YS02001619        0.52      0.52      0.53      0.01         0.01
  YS02001619YS02001622        0.51      0.52      0.51      0.65         0.49
  YS02001622YS02001625        0.51      0.51      0.68      0.01         0.01
  YS02001625YS02001629        0.46      0.46      0.68      0.01         0.01
  YS02001629YS02163301        0.67      0.67      0.68      0.19         0.17
  YS02001633YS02163601        0.70      0.70      0.72      0.40         0.40
  YS02001641YS02001644        0.60      0.63      0.60      1.37         0.60
  YS02001644YS02001647        0.41      0.41      0.60      0.04         0.01
  YS02001647YS02001649        0.41      0.41      0.52      0.01         0.01
  YS02001649YS02001757        0.51      0.52      0.57      0.26         0.21
  YS02001652YS02001649        0.36      0.36      0.52      0.01         0.01
  YS02001655YS02001652        0.16      0.16      0.33      0.01         0.01
  YS02001658YS02001655        0.01      0.01      0.16      0.01         0.01
  YS02001661YS02001658        0.01      0.01      0.01      0.01         0.01
  YS02001748YS02001751        0.01      0.01      0.04      0.01         0.01
  YS02001751YS02001754        0.04      0.04      0.22      0.01         0.01
  YS02001754YS02001757        0.27      0.27      0.57      0.01         0.01
  YS02001757CaochengTiaoxuchi        0.50      0.57      1.82      0.27         0.17
  YS02001759YS02001757        0.47      0.47      0.57      0.01         0.01
  YS02001762YS02001759        0.44      0.44      0.47      0.01         0.01
  YS02001765YS02001762        0.39      0.39      0.44      0.01         0.01
  YS02001767YS02001765        0.37      0.37      0.39      0.01         0.01
  YS02001770YS02001767        0.36      0.36      0.37      0.39         0.26
  YS02001774YS02001770        0.34      0.34      0.43      0.01         0.01
  YS02001779YS02001774        0.22      0.22      0.43      0.01         0.01
  YS02001783YS02001784        0.38      0.40      0.38      0.52         0.38
  YS02001784YS02001785        0.28      0.38      0.28      0.73         0.28
  YS02001786YS02001788        0.01      0.28      0.01      0.61         0.01
  YS02001790YS02001791        0.01      0.01      0.01      0.36         0.01
  YS02001793JiankangQianchi        0.01      0.01      6.66      0.01         0.01
  YS02001882YS02001884        0.35      0.35      0.36      0.01         0.01
  YS02001884YS02001887        0.38      0.38      0.39      0.01         0.01
  YS02001887YS02001890        0.40      0.40      0.41      0.01         0.01
  YS02001890YS02001895        0.34      0.34      0.43      0.01         0.01
  YS02001895YS02001898        0.33      0.33      0.34      0.01         0.01
  YS02001898YS02001901        0.34      0.34      0.38      0.01         0.01
  YS02001901YS02001904        0.37      0.37      0.38      0.01         0.01
  YS02001904YS02001907        0.37      0.37      0.58      0.01         0.01
  YS02001907YS02006553        0.73      0.73      0.80      0.01         0.01
  YS02001910YS02001907        0.43      0.43      0.57      0.01         0.01
  YS02001915YS02001910        0.35      0.35      0.43      0.01         0.01
  YS02001918YS02001915        0.27      0.27      0.35      0.01         0.01
  YS02001920YS02001918        0.27      0.27      0.28      0.01         0.01
  YS02001923YS02001920        0.22      0.22      0.28      0.01         0.01
  YS02001926YS02001923        0.01      0.01      0.01      0.01         0.01
  YS02001929YS02001926        0.01      0.01      0.01      0.01         0.01
  YS02006553YS02006556        0.50      0.50      0.58      0.01         0.01
  YS02006556YS02006558        0.54      0.54      0.60      0.01         0.01
  YS02006558YS02006561        0.30      0.49      0.30      0.68         0.30
  YS02006561YS02001783        0.24      0.24      0.40      0.01         0.01
  YS02163301YS02001633        0.68      0.68      0.71      0.01         0.01
  YS02163601YS02164001        0.64      0.64      0.72      0.05         0.01
  YS02164001YS02001641        0.63      0.64      0.63      0.74         0.61
  YSB1154YSB6556              0.53      0.53      0.67      0.01         0.01
  YSB1171HS02004479           0.45      0.45      0.67      0.01         0.01
  YSB1174YSB1171              0.59      0.59      0.91      0.01         0.01
  YSB6556YSB1171              0.53      0.53      1.08      0.01         0.01
  
  
  ***************
  Pumping Summary
  ***************
  
  ---------------------------------------------------------------------------------------------------------
                                                  Min       Avg       Max     Total     Power    % Time Off
                        Percent   Number of      Flow      Flow      Flow    Volume     Usage    Pump Curve
  Pump                 Utilized   Start-Ups       LPS       LPS       LPS  10^6 ltr     Kw-hr    Low   High
  ---------------------------------------------------------------------------------------------------------
  CC-R1                   15.12           7      0.00    683.00    683.00     2.975     55.13    0.0    7.4
  CC-R2                    7.59           8      0.00    683.00    683.00     1.493     27.74    0.0   15.1
  CC-S1                   45.18          28      0.00    200.00    200.00     2.602     17.52    0.0    0.0
  CC-S2                   43.67          16      0.00    200.00    200.00     2.516     16.97    0.0    0.0
  JK-R1                    4.60          18      0.00   1000.00   1000.00     1.325     12.24    0.0    0.0
  JK-R2                    3.70          15      0.00   1000.00   1000.00     1.067      8.59    0.0    0.0
  JK-S                    12.60          35      0.00    300.00    300.00     1.089     19.26    0.0    0.0
  XR-1                    97.91           2      0.00     95.00     95.00     2.679      9.64    0.0    0.0
  XR-2                    93.95           2      0.00     95.00     95.00     2.571      8.80    0.0    0.0
  XR-3                     0.00           1      0.00     95.00     95.00     0.000      0.00    0.0    0.0
  XR-4                     0.00           1      0.00     95.00     95.00     0.000      0.00    0.0    0.0
  

  Analysis begun on:  Mon Feb 27 13:40:40 2023
  Analysis ended on:  Mon Feb 27 13:40:44 2023
  Total elapsed time: 00:00:04