
  OWA STORM WATER MANAGEMENT MODEL - VERSION v5.1.14 (OWA 2023-01-25)
  --------------------------------------------------------------

  WARNING 04: minimum elevation drop used for Conduit WS02004404WS02004405
  WARNING 03: negative offset ignored for Link YS02001904YS02001907
  
  *********************************************************
  NOTE: The summary statistics displayed in this report are
  based on results found at every computational time step,  
  not just on results from each reporting time step.
  *********************************************************
  
  ****************
  Analysis Options
  ****************
  Flow Units ............... LPS
  Process Models:
    Rainfall/Runoff ........ YES
    RDII ................... NO
    Snowmelt ............... NO
    Groundwater ............ NO
    Flow Routing ........... YES
    Ponding Allowed ........ NO
    Water Quality .......... NO
  Infiltration Method ...... HORTON
  Flow Routing Method ...... DYNWAVE
  Surcharge Method ......... EXTRAN
  Starting Date ............ 08/28/2015 08:00:00
  Ending Date .............. 08/28/2015 16:00:00
  Antecedent Dry Days ...... 8.0
  Report Time Step ......... 00:01:00
  Wet Time Step ............ 00:01:00
  Dry Time Step ............ 00:01:00
  Routing Time Step ........ 30.00 sec
  Variable Time Step ....... YES
  Maximum Trials ........... 8
  Number of Threads ........ 4
  Head Tolerance ........... 0.001500 m
  
  
  **************************        Volume         Depth
  Runoff Quantity Continuity     hectare-m            mm
  **************************     ---------       -------
  Total Precipitation ......         4.434        73.202
  Evaporation Loss .........         0.000         0.000
  Infiltration Loss ........         0.242         4.001
  Surface Runoff ...........         4.132        68.212
  Final Storage ............         0.061         1.007
  Continuity Error (%) .....        -0.023
  
  
  **************************        Volume        Volume
  Flow Routing Continuity        hectare-m      10^6 ltr
  **************************     ---------     ---------
  Dry Weather Inflow .......         0.630         6.296
  Wet Weather Inflow .......         4.132        41.322
  Groundwater Inflow .......         0.000         0.000
  RDII Inflow ..............         0.000         0.000
  External Inflow ..........         0.105         1.045
  External Outflow .........         2.769        27.692
  Flooding Loss ............         2.093        20.929
  Evaporation Loss .........         0.000         0.000
  Exfiltration Loss ........         0.000         0.000
  Initial Stored Volume ....         0.303         3.031
  Final Stored Volume ......         0.323         3.228
  Continuity Error (%) .....        -0.301
  
  
  *************************
  Highest Continuity Errors
  *************************
  Node YS02001583 (-11.69%)
  Node YS02001884 (5.28%)
  Node HS02004842 (1.54%)
  Node WS02006256 (-1.48%)
  
  
  ***************************
  Time-Step Critical Elements
  ***************************
  Link WS02006252WS02006251 (27.00%)
  Link WS02006280WS02006229 (22.51%)
  Link WS02006238WS02006235 (19.49%)
  Link YS02001791YS02001793 (7.34%)
  Link WS02004404WS02004405 (6.72%)
  
  
  ********************************
  Highest Flow Instability Indexes
  ********************************
  Link WS02006113WS02006111 (37)
  Link WS02004404WS02004405 (29)
  Link WS02006111WS02006112 (27)
  Link WS02004403WS02004404 (25)
  Link WS02006238WS02006235 (23)
  
  
  *************************
  Routing Time Step Summary
  *************************
  Minimum Time Step           :     0.00 sec
  Average Time Step           :     1.87 sec
  Maximum Time Step           :     6.46 sec
  Percent in Steady State     :    -0.00
  Average Iterations per Step :     3.43
  Percent Not Converging      :    12.97
  
  
  ***************************
  Subcatchment Runoff Summary
  ***************************
  
  ------------------------------------------------------------------------------------------------------------------------------
                            Total      Total      Total      Total     Imperv       Perv      Total       Total     Peak  Runoff
                           Precip      Runon       Evap      Infil     Runoff     Runoff     Runoff      Runoff   Runoff   Coeff
  Subcatchment                 mm         mm         mm         mm         mm         mm         mm    10^6 ltr      LPS
  ------------------------------------------------------------------------------------------------------------------------------
  sub0                      73.20       0.00       0.00       1.02      66.83       4.10      70.94        0.06    37.44   0.969
  sub1                      73.20       0.00       0.00       1.74      63.91       6.32      70.22        0.47   248.87   0.959
  sub10                     73.20       0.00       0.00       1.23      66.07       4.63      70.70        0.78   425.34   0.966
  sub11                     73.20       0.00       0.00       1.21      66.09       4.65      70.74        0.82   475.22   0.966
  sub12                     73.20       0.00       0.00       1.97      62.52       7.55      70.07        0.61   382.31   0.957
  sub14                     73.20       0.00       0.00       1.38      65.36       5.21      70.57        0.67   377.98   0.964
  sub15                     73.20       0.00       0.00       5.33      50.27      16.64      66.91        1.15   567.50   0.914
  sub16                     73.20       0.00       0.00       5.54      48.14      18.62      66.76        0.70   380.46   0.912
  sub17                     73.20       0.00       0.00       5.40      48.86      18.03      66.89        0.57   309.36   0.914
  sub2                      73.20       0.00       0.00       7.54      45.22      19.54      64.76        0.60   248.25   0.885
  sub22                     73.20       0.00       0.00       8.04      40.95      23.44      64.39        4.07  1857.30   0.880
  sub23                     73.20       0.00       0.00       6.58      45.26      20.51      65.77        3.14  1547.52   0.898
  sub3                      73.20       0.00       0.00       8.18      45.18      18.90      64.08        1.44   536.24   0.875
  sub4                      73.20       0.00       0.00       1.92      63.74       6.14      69.87        1.46   597.24   0.955
  sub5                      73.20       0.00       0.00       1.07      66.78       4.05      70.83        0.80   429.97   0.968
  sub60                     73.20       0.00       0.00       1.85      63.22       6.94      70.15        0.92   537.45   0.958
  sub61                     73.20       0.00       0.00       2.68      59.63       9.77      69.40        1.27   741.64   0.948
  sub62                     73.20       0.00       0.00       1.23      66.06       4.62      70.69        1.94  1041.74   0.966
  sub63                     73.20       0.00       0.00       4.91      51.01      16.32      67.33        1.53   813.73   0.920
  sub64                     73.20       0.00       0.00       2.49      61.02       8.50      69.51        1.67   840.81   0.950
  sub65                     73.20       0.00       0.00       2.15      62.43       7.37      69.80        1.92   938.10   0.954
  sub66                     73.20       0.00       0.00       6.00      50.90      15.23      66.13        3.08  1208.56   0.903
  sub67                     73.20       0.00       0.00       1.19      66.11       4.67      70.77        1.32   814.20   0.967
  sub68                     73.20       0.00       0.00       2.22      61.77       8.03      69.80        1.92  1067.09   0.954
  sub69                     73.20       0.00       0.00       1.97      62.11       9.01      71.12        2.63  1256.01   0.972
  sub7                      73.20       0.00       0.00       1.36      65.38       5.23      70.61        0.24   140.62   0.965
  sub70                     73.20       0.00       0.00       6.45      48.15      18.44      66.59        1.92   683.12   0.910
  sub71                     73.20       0.00       0.00       1.26      66.02       4.59      70.62        1.85   912.00   0.965
  sub72                     73.20       0.00       0.00       1.12      66.68       4.00      70.68        0.97   438.59   0.966
  sub8                      73.20       0.00       0.00       1.38      65.37       5.22      70.58        0.45   257.55   0.964
  sub9                      73.20       0.00       0.00       1.38      65.36       5.21      70.58        0.34   192.29   0.964
  
  
  ******************
  Node Depth Summary
  ******************
  
  ---------------------------------------------------------------------------------
                                 Average  Maximum  Maximum  Time of Max    Reported
                                   Depth    Depth      HGL   Occurrence   Max Depth
  Node                 Type       Meters   Meters   Meters  days hr:min      Meters
  ---------------------------------------------------------------------------------
  HS02004478           JUNCTION     0.22     1.59    10.82     0  01:36        1.59
  HS02004479           JUNCTION     0.29     1.73    10.93     0  01:34        1.70
  HS02004480           JUNCTION     0.26     1.69    10.93     0  01:34        1.66
  HS02004770           JUNCTION     0.26     1.42    11.25     0  01:34        1.42
  HS02004777           JUNCTION     0.29     1.48    11.28     0  01:34        1.48
  HS02004785           JUNCTION     0.18     1.49    11.39     0  01:34        1.36
  HS02004788           JUNCTION     0.15     1.42    11.32     0  01:34        1.37
  HS02004792           JUNCTION     0.21     1.60    11.12     0  01:34        1.60
  HS02004799           JUNCTION     0.32     1.76    10.97     0  01:34        1.76
  HS02004802           JUNCTION     0.32     1.80    10.93     0  01:37        1.80
  HS02004807           JUNCTION     0.29     1.92    11.09     0  01:34        1.92
  HS02004817           JUNCTION     0.60     2.44    11.29     0  01:34        2.37
  HS02004824           JUNCTION     0.17     2.01    11.41     0  01:34        1.95
  HS02004830           JUNCTION     0.17     2.03    11.50     0  01:34        1.89
  HS02004837           JUNCTION     0.14     2.04    11.62     0  01:34        1.81
  HS02004842           JUNCTION     0.44     2.22    11.49     0  01:36        2.13
  HS02004848           JUNCTION     0.12     1.97    11.57     0  01:36        1.80
  HS02004852           JUNCTION     0.13     2.03    11.54     0  01:36        1.85
  HS02004856           JUNCTION     0.19     2.07    11.50     0  01:36        1.89
  HS02004862           JUNCTION     0.14     2.00    11.38     0  01:36        1.91
  HS02004870           JUNCTION     0.14     2.10    11.39     0  01:36        1.88
  HS02004876           JUNCTION     0.18     2.26    11.29     0  01:36        1.97
  HS02004881           JUNCTION     0.13     2.15    11.18     0  01:36        1.73
  HS02004901           JUNCTION     0.27     1.42    11.24     0  01:34        1.42
  WS02001211           JUNCTION     0.64     0.83     5.67     0  01:38        0.82
  WS02001212           JUNCTION     0.38     0.60     5.66     0  01:37        0.59
  WS02001213           JUNCTION     0.62     0.90     5.66     0  01:37        0.87
  WS02003059           JUNCTION     0.68     0.97     5.65     0  01:39        0.96
  WS02003060           JUNCTION     0.41     0.70     5.63     0  01:40        0.69
  WS02003066           JUNCTION     0.25     0.46     6.01     0  01:38        0.46
  WS02003067           JUNCTION     0.59     0.89     6.21     0  01:40        0.89
  WS02003069           JUNCTION     0.46     0.78     5.37     0  01:42        0.78
  WS02003072           JUNCTION     0.52     0.82     5.19     0  01:42        0.82
  WS02003073           JUNCTION     0.31     0.52     4.58     0  01:42        0.52
  WS02004138           JUNCTION     0.13     0.14     7.39     0  00:32        0.14
  WS02004139           JUNCTION     0.58     0.75     5.66     0  01:41        0.75
  WS02004401           JUNCTION     0.83     1.95     7.95     0  01:29        1.90
  WS02004402           JUNCTION     0.85     1.97     7.93     0  01:29        1.83
  WS02004403           JUNCTION     0.85     1.95     7.88     0  01:29        1.74
  WS02004404           JUNCTION     0.92     1.96     7.81     0  01:29        1.74
  WS02004405           JUNCTION     0.90     1.87     7.72     0  01:29        1.69
  WS02004406           JUNCTION     0.89     1.59     7.42     0  01:38        1.58
  WS02004407           JUNCTION     0.29     0.94     7.25     0  01:39        0.94
  WS02004409           JUNCTION     0.60     1.40     7.17     0  01:38        1.39
  WS02004410           JUNCTION     0.60     1.30     7.02     0  01:38        1.30
  WS02004411           JUNCTION     0.60     1.21     6.89     0  01:38        1.21
  WS02004412           JUNCTION     0.60     1.11     6.75     0  01:38        1.11
  WS02004413           JUNCTION     0.74     1.15     6.62     0  01:38        1.15
  WS02006109           JUNCTION     1.06     2.64     9.26     0  01:34        2.64
  WS02006110           JUNCTION     0.99     2.44     9.03     0  01:29        2.43
  WS02006111           JUNCTION     0.45     1.90     8.61     0  01:29        1.80
  WS02006112           JUNCTION     1.06     2.44     8.32     0  01:34        2.44
  WS02006113           JUNCTION     0.55     2.05     8.94     0  01:29        1.88
  WS02006115           JUNCTION     0.76     2.02     8.16     0  01:34        2.02
  WS02006116           JUNCTION     0.83     2.01     8.05     0  01:29        2.01
  WS02006228           JUNCTION     1.12     3.03     9.68     0  01:36        3.03
  WS02006229           JUNCTION     1.13     3.23     9.93     0  01:36        3.22
  WS02006230           JUNCTION     1.07     2.65     9.39     0  01:32        2.65
  WS02006231           JUNCTION     0.79     2.20     9.32     0  02:17        2.20
  WS02006232           JUNCTION     0.90     2.18     9.22     0  01:32        2.18
  WS02006234           JUNCTION     0.79     1.96     9.12     0  01:31        1.96
  WS02006235           JUNCTION     0.81     2.00     9.16     0  02:35        1.99
  WS02006238           JUNCTION     0.83     2.02     9.16     0  02:35        2.01
  WS02006239           JUNCTION     0.79     2.03     9.24     0  01:27        1.89
  WS02006240           JUNCTION     0.73     2.10     9.39     0  01:27        2.05
  WS02006242           JUNCTION     0.78     1.55     8.82     0  01:27        1.55
  WS02006243           JUNCTION     0.68     1.48     8.90     0  01:27        1.39
  WS02006245           JUNCTION     0.65     1.56     9.05     0  01:27        1.30
  WS02006247           JUNCTION     0.66     1.47     8.97     0  01:27        1.24
  WS02006248           JUNCTION     0.61     1.10     8.69     0  01:28        1.10
  WS02006249           JUNCTION     0.63     1.09     8.69     0  01:28        1.09
  WS02006251           JUNCTION     0.74     2.21     9.88     0  01:36        2.13
  WS02006252           JUNCTION     0.52     1.50     9.74     0  00:00        1.50
  WS02006253           JUNCTION     0.81     3.34    10.98     0  01:36        3.01
  WS02006256           JUNCTION     1.13     2.35     9.28     0  00:00        2.35
  WS02006280           JUNCTION     0.28     1.75    10.02     0  01:36        1.74
  WS02006284           JUNCTION     0.55     1.96    10.36     0  01:36        1.94
  WS02006287           JUNCTION     0.28     1.75    10.70     0  01:36        1.74
  WSF200               JUNCTION     0.25     0.53     5.76     0  01:41        0.52
  YS02001580           JUNCTION     0.09     1.05     9.59     0  01:34        0.77
  YS02001583           JUNCTION     0.12     1.14     9.64     0  01:34        0.83
  YS02001586           JUNCTION     0.19     1.13     9.30     0  01:34        1.13
  YS02001590           JUNCTION     0.29     1.40     9.26     0  01:32        1.38
  YS02001593           JUNCTION     0.22     1.46     9.32     0  01:34        1.46
  YS02001596           JUNCTION     0.30     1.80     9.22     0  01:34        1.80
  YS02001600           JUNCTION     0.37     1.87     9.00     0  01:33        1.87
  YS02001601           JUNCTION     0.55     2.06     8.90     0  01:32        2.06
  YS02001602           JUNCTION     0.47     1.87     8.77     0  01:34        1.87
  YS02001605           JUNCTION     0.44     1.78     8.68     0  01:34        1.78
  YS02001607           JUNCTION     0.43     1.66     8.50     0  01:34        1.65
  YS02001610           JUNCTION     0.47     1.68     8.48     0  01:34        1.68
  YS02001613           JUNCTION     0.43     1.68     8.52     0  01:34        1.66
  YS02001616           JUNCTION     0.37     1.61     8.52     0  01:34        1.61
  YS02001619           JUNCTION     0.34     1.61     8.54     0  01:34        1.61
  YS02001622           JUNCTION     0.33     1.62     8.52     0  01:34        1.58
  YS02001625           JUNCTION     0.59     1.78     8.38     0  01:34        1.78
  YS02001629           JUNCTION     0.45     1.85     8.40     0  01:34        1.85
  YS02001633           JUNCTION     0.53     2.04     8.49     0  01:36        2.02
  YS02001641           JUNCTION     0.51     1.96     8.40     0  01:36        1.94
  YS02001644           JUNCTION     0.51     1.92     8.35     0  01:36        1.92
  YS02001647           JUNCTION     0.30     1.83     8.44     0  01:37        1.83
  YS02001649           JUNCTION     0.35     2.05     8.44     0  01:37        2.05
  YS02001652           JUNCTION     0.25     2.16     8.76     0  01:37        2.16
  YS02001655           JUNCTION     0.19     1.98     8.83     0  01:37        1.77
  YS02001658           JUNCTION     0.13     1.99     9.13     0  01:37        1.53
  YS02001661           JUNCTION     0.15     1.66     9.06     0  01:37        1.35
  YS02001664           JUNCTION     0.05     0.91     8.83     0  01:38        0.88
  YS02001745           JUNCTION     0.07     2.00     9.52     0  01:37        0.74
  YS02001748           JUNCTION     0.13     2.27     9.35     0  01:37        1.17
  YS02001751           JUNCTION     0.16     2.20     9.08     0  01:37        1.34
  YS02001754           JUNCTION     0.22     2.20     8.81     0  01:37        1.60
  YS02001757           JUNCTION     0.38     2.21     8.47     0  01:37        1.95
  YS02001759           JUNCTION     0.32     2.21     8.57     0  01:37        1.95
  YS02001762           JUNCTION     0.31     2.15     8.55     0  01:37        1.93
  YS02001765           JUNCTION     0.29     2.10     8.55     0  01:37        1.89
  YS02001767           JUNCTION     0.29     2.03     8.52     0  01:37        1.88
  YS02001770           JUNCTION     0.30     1.95     8.45     0  01:36        1.92
  YS02001774           JUNCTION     0.36     2.02     8.44     0  01:36        1.98
  YS02001779           JUNCTION     0.20     1.68     8.37     0  01:36        1.68
  YS02001783           JUNCTION     0.23     1.70     7.84     0  01:35        1.23
  YS02001784           JUNCTION     0.24     1.40     7.47     0  01:35        1.12
  YS02001786           JUNCTION     0.20     1.01     7.04     0  01:35        0.87
  YS02001788           JUNCTION     0.15     0.62     6.60     0  01:37        0.62
  YS02001790           JUNCTION     0.17     0.73     6.37     0  01:38        0.72
  YS02001791           JUNCTION     0.11     0.44     5.91     0  01:39        0.44
  YS02001793           JUNCTION     0.06     0.30     5.14     0  01:45        0.30
  YS02001882           JUNCTION     0.29     1.83     8.55     0  01:34        1.67
  YS02001884           JUNCTION     0.38     1.86     8.48     0  01:35        1.76
  YS02001887           JUNCTION     0.46     1.88     8.42     0  01:35        1.83
  YS02001890           JUNCTION     0.49     1.81     8.32     0  01:35        1.81
  YS02001895           JUNCTION     0.26     1.65     8.39     0  01:35        1.57
  YS02001898           JUNCTION     0.27     1.64     8.37     0  01:35        1.57
  YS02001901           JUNCTION     0.38     1.72     8.33     0  01:35        1.67
  YS02001904           JUNCTION     0.36     1.66     8.29     0  01:35        1.64
  YS02001907           JUNCTION     0.68     1.96     8.25     0  01:35        1.96
  YS02001910           JUNCTION     0.48     2.03     8.54     0  01:36        1.94
  YS02001915           JUNCTION     0.29     1.98     8.70     0  01:36        1.86
  YS02001918           JUNCTION     0.15     1.81     8.88     0  01:36        1.56
  YS02001920           JUNCTION     0.23     2.11     9.12     0  01:36        1.54
  YS02001923           JUNCTION     0.12     2.03     9.29     0  01:36        1.29
  YS02001926           JUNCTION     0.15     1.90     9.35     0  01:36        1.17
  YS02001929           JUNCTION     0.08     1.78     9.47     0  01:36        0.99
  YS02006553           JUNCTION     0.68     2.04     8.32     0  01:35        1.98
  YS02006556           JUNCTION     0.65     2.10     8.41     0  01:35        1.98
  YS02006558           JUNCTION     0.69     2.24     8.51     0  01:35        2.04
  YS02006561           JUNCTION     0.14     1.48     8.14     0  01:35        0.90
  YS02163301           JUNCTION     0.47     1.97     8.49     0  01:34        1.92
  YS02163601           JUNCTION     0.57     2.06     8.45     0  01:36        2.01
  YS02164001           JUNCTION     0.50     1.97     8.43     0  01:36        1.93
  YSB1154              JUNCTION     0.43     2.00    11.06     0  01:35        2.00
  YSB1171              JUNCTION     0.57     1.95    10.85     0  01:34        1.95
  YSB1174              JUNCTION     0.38     1.86    10.97     0  01:35        1.86
  YSB6556              JUNCTION     0.33     1.80    10.97     0  01:35        1.80
  CC-1                 OUTFALL      0.00     0.00     0.00     0  00:00        0.00
  CC-2                 OUTFALL      0.00     0.00     0.00     0  00:00        0.00
  JK-1                 OUTFALL      0.00     0.00     0.00     0  00:00        0.00
  JK-2                 OUTFALL      0.00     0.00     0.00     0  00:00        0.00
  WSC                  OUTFALL      0.31     0.52     1.19     0  01:43        0.52
  CC-storage           STORAGE      0.87     1.71     7.21     0  02:18        1.71
  JK-storage           STORAGE      1.40     4.23     5.03     0  01:45        4.18
  XR-storage           STORAGE      7.92     9.26     7.26     0  08:00        9.26
  
  
  *******************
  Node Inflow Summary
  *******************
  
  -------------------------------------------------------------------------------------------------
                                  Maximum  Maximum                  Lateral       Total        Flow
                                  Lateral    Total  Time of Max      Inflow      Inflow     Balance
                                   Inflow   Inflow   Occurrence      Volume      Volume       Error
  Node                 Type           LPS      LPS  days hr:min    10^6 ltr    10^6 ltr     Percent
  -------------------------------------------------------------------------------------------------
  HS02004478           JUNCTION      0.00  2309.67     0  01:38           0        9.95      -0.013
  HS02004479           JUNCTION      0.00   547.82     0  01:35           0       0.969       0.063
  HS02004480           JUNCTION      0.00  2179.51     0  01:34           0        7.42       0.021
  HS02004770           JUNCTION   1547.52  1547.52     0  01:40        3.14        3.41       0.085
  HS02004777           JUNCTION      0.03   828.98     0  01:34    0.000864        2.16       0.241
  HS02004785           JUNCTION      0.15   835.40     0  01:33     0.00432        2.16       0.027
  HS02004788           JUNCTION    569.17  1052.25     0  01:34         1.2        3.36      -0.015
  HS02004792           JUNCTION   1857.58  2667.79     0  01:40        4.08        7.43       0.007
  HS02004799           JUNCTION    377.98  1753.69     0  01:34       0.672         6.7       0.044
  HS02004802           JUNCTION      0.00  1233.81     0  01:44           0        2.69       0.147
  HS02004807           JUNCTION    475.22  1474.48     0  01:40       0.822         2.8       0.145
  HS02004817           JUNCTION      0.60  1014.24     0  01:41      0.0173        2.03       0.810
  HS02004824           JUNCTION    597.29  1013.44     0  01:41        1.46        2.25       0.026
  HS02004830           JUNCTION      0.15   755.75     0  01:34     0.00432        1.03       0.118
  HS02004837           JUNCTION    431.69   993.78     0  01:34       0.963        1.42       0.019
  HS02004842           JUNCTION      0.00   989.84     0  01:35           0       0.851       1.564
  HS02004848           JUNCTION    536.24  1228.92     0  01:35        1.44        2.11      -0.012
  HS02004852           JUNCTION      0.00  1214.00     0  01:35           0        1.94       0.001
  HS02004856           JUNCTION    192.29  1350.41     0  01:35       0.339        2.28       0.064
  HS02004862           JUNCTION    248.45  1510.86     0  01:35       0.609        2.89      -0.006
  HS02004870           JUNCTION    257.55  1679.34     0  01:36       0.451        3.34      -0.016
  HS02004876           JUNCTION    248.87  1469.62     0  01:36       0.467         3.8       0.012
  HS02004881           JUNCTION    140.62  1595.64     0  01:36       0.238        4.04      -0.006
  HS02004901           JUNCTION    380.46   607.45     0  01:41       0.699        1.09       0.161
  WS02001211           JUNCTION      7.35   262.67     0  01:36       0.212        5.44       0.610
  WS02001212           JUNCTION      0.00   267.37     0  01:33           0        5.41       0.289
  WS02001213           JUNCTION      0.00   272.07     0  01:39           0         5.4       0.332
  WS02003059           JUNCTION      0.00   284.40     0  01:32           0         5.4       0.595
  WS02003060           JUNCTION     16.53  1554.06     0  01:39       0.476        17.1       0.088
  WS02003066           JUNCTION      0.00  1314.92     0  01:39           0        11.3       0.016
  WS02003067           JUNCTION      0.00  1310.48     0  01:39           0        11.3       0.041
  WS02003069           JUNCTION      0.32  1528.44     0  01:41     0.00922        17.1       0.094
  WS02003072           JUNCTION      0.00  1522.64     0  01:42           0        17.1       0.126
  WS02003073           JUNCTION      1.82  1524.45     0  01:42      0.0524        17.1       0.131
  WS02004138           JUNCTION      0.00   380.00     0  00:00           0        5.25       0.054
  WS02004139           JUNCTION      0.32   197.07     0  01:35     0.00924        5.26       0.509
  WS02004401           JUNCTION      0.00  1310.19     0  01:38           0        11.4       0.098
  WS02004402           JUNCTION      0.00  1310.18     0  01:39           0        11.4       0.099
  WS02004403           JUNCTION      0.00  1310.01     0  01:39           0        11.4       0.095
  WS02004404           JUNCTION      0.16  1310.86     0  01:39     0.00467        11.3       0.082
  WS02004405           JUNCTION      0.04  1310.84     0  01:38      0.0011        11.3       0.108
  WS02004406           JUNCTION      0.00  1311.44     0  01:39           0        11.3       0.194
  WS02004407           JUNCTION      0.00  1311.08     0  01:39           0        11.3       0.016
  WS02004409           JUNCTION      0.00  1310.33     0  01:39           0        11.3       0.032
  WS02004410           JUNCTION      0.00  1310.63     0  01:39           0        11.3       0.048
  WS02004411           JUNCTION      0.00  1310.77     0  01:39           0        11.3       0.059
  WS02004412           JUNCTION      0.00  1310.43     0  01:39           0        11.3       0.076
  WS02004413           JUNCTION      0.00  1310.45     0  01:39           0        11.3       0.133
  WS02006109           JUNCTION      1.23  1291.59     0  01:37      0.0354        11.2       0.071
  WS02006110           JUNCTION      0.00  1123.76     0  02:05           0        10.8       0.071
  WS02006111           JUNCTION      0.00  1123.46     0  02:05           0        10.8       0.002
  WS02006112           JUNCTION    309.36  1310.02     0  01:39       0.574        11.4       0.163
  WS02006113           JUNCTION      0.00  1123.65     0  02:05           0        10.8       0.027
  WS02006115           JUNCTION      0.00  1310.31     0  01:39           0        11.4       0.065
  WS02006116           JUNCTION      0.00  1309.71     0  01:38           0        11.4      -0.011
  WS02006228           JUNCTION      0.00  1291.66     0  01:38           0        11.1       0.030
  WS02006229           JUNCTION      0.00  2310.20     0  01:37           0          14       0.057
  WS02006230           JUNCTION     10.28  1028.99     0  01:37       0.296        6.89       0.115
  WS02006231           JUNCTION      0.00   560.49     0  04:15           0        5.44      -0.038
  WS02006232           JUNCTION      0.00   558.63     0  04:15           0        5.43       0.119
  WS02006234           JUNCTION      0.00   555.47     0  04:15           0        5.41      -0.147
  WS02006235           JUNCTION      0.00   551.93     0  04:15           0        5.47       0.188
  WS02006238           JUNCTION      0.00   428.32     0  04:16           0        5.15      -0.202
  WS02006239           JUNCTION      0.00   428.49     0  04:16           0        5.11      -0.182
  WS02006240           JUNCTION      0.00   426.85     0  04:16           0        5.09      -0.035
  WS02006242           JUNCTION      0.00   426.58     0  04:16           0        5.09      -0.007
  WS02006243           JUNCTION      0.00   426.78     0  04:16           0        4.61      -0.323
  WS02006245           JUNCTION      0.00   426.65     0  04:16           0        4.63       0.262
  WS02006247           JUNCTION      0.00   426.60     0  04:16           0        4.63       0.005
  WS02006248           JUNCTION      0.00   426.20     0  03:37           0        4.96      -0.002
  WS02006249           JUNCTION      0.00  1362.44     0  01:36           0        9.03       0.089
  WS02006251           JUNCTION      0.08  1635.33     0  01:36     0.00222        9.25       0.003
  WS02006252           JUNCTION      0.00   675.40     0  01:36           0        5.75      -0.221
  WS02006253           JUNCTION     37.44  1633.44     0  01:36      0.0575        4.17       0.038
  WS02006256           JUNCTION      0.00   300.00     0  00:00           0        1.44      -1.455
  WS02006280           JUNCTION      0.00  2308.84     0  01:37           0        9.94       0.005
  WS02006284           JUNCTION      0.10  2308.15     0  01:38     0.00275        9.94       0.009
  WS02006287           JUNCTION      0.00  2308.12     0  01:37           0        9.94       0.005
  WSF200               JUNCTION      0.00  1314.60     0  01:39           0        11.3       0.008
  YS02001580           JUNCTION      0.00   172.71     0  01:34           0     0.00447      -3.861
  YS02001583           JUNCTION      0.00   252.75     0  01:34           0      0.0148     -10.464
  YS02001586           JUNCTION    683.12   683.12     0  01:43        1.92        1.94       0.085
  YS02001590           JUNCTION      0.00   318.48     0  01:47           0        1.52      -0.029
  YS02001593           JUNCTION      0.00   318.32     0  01:47           0        1.52      -0.011
  YS02001596           JUNCTION      0.00   318.12     0  01:47           0        1.52      -0.012
  YS02001600           JUNCTION      0.00   318.24     0  01:47           0        1.52      -0.006
  YS02001601           JUNCTION   1256.01  1573.56     0  01:41        2.63        4.15       0.019
  YS02001602           JUNCTION      0.00   574.75     0  01:34           0        2.53       0.013
  YS02001605           JUNCTION      0.00   574.59     0  01:34           0        2.38       0.017
  YS02001607           JUNCTION      0.00   574.30     0  01:34           0        2.38       0.081
  YS02001610           JUNCTION      0.00   650.94     0  01:42           0        2.59       0.087
  YS02001613           JUNCTION      0.00   520.52     0  01:34           0        2.03       0.088
  YS02001616           JUNCTION      0.00   491.70     0  01:34           0        2.03       0.003
  YS02001619           JUNCTION   1208.56  1208.56     0  01:42        3.08        4.89      -0.005
  YS02001622           JUNCTION      0.00   935.73     0  01:34           0        4.67      -0.013
  YS02001625           JUNCTION      0.00  1275.43     0  01:42           0        4.87       0.185
  YS02001629           JUNCTION      0.00   923.06     0  01:34           0        3.77      -0.006
  YS02001633           JUNCTION    938.30  1438.05     0  01:35        1.93        5.43       0.058
  YS02001641           JUNCTION      0.00  1435.53     0  01:35           0         5.2       0.050
  YS02001644           JUNCTION    840.85  1954.06     0  01:35        1.67        6.86       0.048
  YS02001647           JUNCTION      0.00  1953.17     0  01:35           0        6.52       0.007
  YS02001649           JUNCTION      0.00  2213.78     0  01:36           0        8.06       0.000
  YS02001652           JUNCTION      0.00   994.23     0  01:38           0        1.53      -0.111
  YS02001655           JUNCTION      0.15   992.14     0  01:38     0.00443        1.53       0.044
  YS02001658           JUNCTION      0.00   990.40     0  01:38           0        1.53      -0.033
  YS02001661           JUNCTION      0.00   986.26     0  01:38           0        1.53       0.011
  YS02001664           JUNCTION    813.73   813.73     0  01:39        1.53        1.53      -0.020
  YS02001745           JUNCTION    537.45   710.59     0  01:37       0.922       0.923       0.154
  YS02001748           JUNCTION      0.04   869.78     0  01:37      0.0013       0.929      -0.263
  YS02001751           JUNCTION      0.01   672.36     0  01:37    0.000317       0.937       0.010
  YS02001754           JUNCTION      0.26   674.11     0  01:37     0.00749        0.95      -0.258
  YS02001757           JUNCTION      0.00  3568.19     0  01:38           0        12.1       0.045
  YS02001759           JUNCTION    741.68  1523.84     0  01:37        1.27        3.07      -0.008
  YS02001762           JUNCTION      0.00   825.17     0  01:37           0         1.8      -0.012
  YS02001765           JUNCTION      0.00   830.50     0  01:37           0         1.8       0.021
  YS02001767           JUNCTION      0.54   836.66     0  01:37      0.0154         1.8      -0.007
  YS02001770           JUNCTION   1041.89  1041.89     0  01:40        1.94        1.99      -0.012
  YS02001774           JUNCTION      0.00   528.10     0  01:36           0       0.222       0.557
  YS02001779           JUNCTION      0.01   490.66     0  01:36    0.000144       0.176      -0.841
  YS02001783           JUNCTION      0.00  1166.65     0  01:37           0         4.6       0.005
  YS02001784           JUNCTION      1.06  1167.13     0  01:37      0.0305        4.63       0.010
  YS02001786           JUNCTION      0.06  1168.52     0  01:37     0.00162        4.63       0.013
  YS02001788           JUNCTION      0.07  1169.50     0  01:37     0.00204        4.63       0.006
  YS02001790           JUNCTION      0.15  1175.76     0  01:36     0.00446        4.64       0.019
  YS02001791           JUNCTION      0.00  1293.48     0  01:40           0        4.64      -0.030
  YS02001793           JUNCTION      0.00  1251.40     0  01:38           0        4.64       0.006
  YS02001882           JUNCTION      0.00    95.23     0  01:34           0       0.013       3.978
  YS02001884           JUNCTION      0.00   137.97     0  01:34           0      0.0491       5.573
  YS02001887           JUNCTION    814.65   815.28     0  01:38        1.33        1.36       0.321
  YS02001890           JUNCTION      0.00   815.70     0  01:38           0        1.32       0.372
  YS02001895           JUNCTION      0.00   597.70     0  01:35           0        1.21       0.143
  YS02001898           JUNCTION      0.00   602.03     0  01:35           0        1.21      -0.013
  YS02001901           JUNCTION      0.00   606.65     0  01:35           0        1.21       0.288
  YS02001904           JUNCTION      0.00   607.77     0  01:35           0        1.22       0.223
  YS02001907           JUNCTION      0.00  1888.95     0  01:39           0        4.12       0.440
  YS02001910           JUNCTION      0.00  1372.33     0  01:39           0        2.91       0.255
  YS02001915           JUNCTION    912.02  1371.73     0  01:39        1.85        2.96       0.043
  YS02001918           JUNCTION      0.00   721.21     0  01:35           0        1.14       0.022
  YS02001920           JUNCTION      2.87   701.69     0  01:35      0.0827        1.12       0.042
  YS02001923           JUNCTION      0.04   982.09     0  01:35     0.00109        1.02      -0.150
  YS02001926           JUNCTION      0.05  1250.31     0  01:36      0.0015       0.993      -0.385
  YS02001929           JUNCTION    438.59  1087.04     0  01:36       0.972       0.979      -0.184
  YS02006553           JUNCTION      0.00   791.28     0  02:03           0        2.71       0.436
  YS02006556           JUNCTION      0.00   791.89     0  02:03           0        2.72       0.297
  YS02006558           JUNCTION   1067.97  1171.50     0  01:35        1.95        4.64       0.084
  YS02006561           JUNCTION      0.00  1174.47     0  01:35           0         4.6      -0.005
  YS02163301           JUNCTION      0.00   897.03     0  01:35           0        3.75       0.035
  YS02163601           JUNCTION      0.11  1437.39     0  01:35     0.00317        5.19       0.091
  YS02164001           JUNCTION      0.00  1436.32     0  01:35           0        5.19       0.040
  YSB1154              JUNCTION    429.97   429.97     0  01:40       0.803       0.803       0.176
  YSB1171              JUNCTION      0.00  1022.32     0  01:40           0        1.55       0.404
  YSB1174              JUNCTION    382.31   382.31     0  01:38       0.612       0.613       0.190
  YSB6556              JUNCTION      0.00   430.19     0  01:40           0       0.804       0.122
  CC-1                 OUTFALL       0.00   683.00     0  00:00           0        4.17       0.000
  CC-2                 OUTFALL       0.00   683.00     0  00:00           0        3.15       0.000
  JK-1                 OUTFALL       0.00  1000.00     0  00:00           0        2.14       0.000
  JK-2                 OUTFALL       0.00  1000.00     0  00:00           0        1.17       0.000
  WSC                  OUTFALL       0.00  1524.64     0  01:43           0        17.1       0.000
  CC-storage           STORAGE       0.00  3567.62     0  01:38           0        14.3      -0.223
  JK-storage           STORAGE       0.00  1218.15     0  01:39           0        4.79      -0.342
  XR-storage           STORAGE     200.00   200.00     0  00:00        5.76        6.36       0.001
  
  
  **********************
  Node Surcharge Summary
  **********************
  
  Surcharging occurs when water rises above the top of the highest conduit.
  ---------------------------------------------------------------------
                                               Max. Height   Min. Depth
                                   Hours       Above Crown    Below Rim
  Node                 Type      Surcharged         Meters       Meters
  ---------------------------------------------------------------------
  HS02004478           JUNCTION        0.61          0.675        0.265
  HS02004479           JUNCTION        0.75          0.926        0.124
  HS02004480           JUNCTION        0.80          0.981        0.119
  HS02004770           JUNCTION        0.70          0.720        0.000
  HS02004777           JUNCTION        0.70          0.780        0.000
  HS02004785           JUNCTION        0.64          0.790        0.000
  HS02004788           JUNCTION        0.63          0.720        0.000
  HS02004792           JUNCTION        0.76          0.900        0.000
  HS02004799           JUNCTION        0.90          1.060        0.000
  HS02004802           JUNCTION        0.80          1.095        0.115
  HS02004807           JUNCTION        0.79          1.220        0.000
  HS02004817           JUNCTION        1.55          1.740        0.000
  HS02004824           JUNCTION        0.63          1.310        0.000
  HS02004830           JUNCTION        0.60          1.330        0.000
  HS02004837           JUNCTION        0.55          1.340        0.000
  HS02004842           JUNCTION        0.71          1.520        0.000
  HS02004848           JUNCTION        0.53          1.274        0.096
  HS02004852           JUNCTION        0.55          1.332        0.088
  HS02004856           JUNCTION        0.54          1.300        0.000
  HS02004862           JUNCTION        0.58          1.300        0.000
  HS02004870           JUNCTION        0.60          1.400        0.000
  HS02004876           JUNCTION        0.69          1.560        0.000
  HS02004881           JUNCTION        0.67          1.450        0.000
  HS02004901           JUNCTION        0.71          0.720        0.000
  WS02004401           JUNCTION        1.80          0.947        0.713
  WS02004402           JUNCTION        1.81          0.972        0.768
  WS02004403           JUNCTION        1.81          0.951        1.079
  WS02004404           JUNCTION        1.98          0.957        1.823
  WS02004405           JUNCTION        1.93          0.870        1.930
  WS02004406           JUNCTION        1.90          0.586        1.864
  WS02004409           JUNCTION        1.25          0.397        1.963
  WS02004410           JUNCTION        1.16          0.305        2.235
  WS02004411           JUNCTION        1.03          0.214        2.316
  WS02004412           JUNCTION        0.93          0.111        2.199
  WS02004413           JUNCTION        1.60          0.149        2.051
  WS02006109           JUNCTION        2.93          1.820        0.000
  WS02006110           JUNCTION        2.27          1.534        0.316
  WS02006111           JUNCTION        1.51          1.092        0.778
  WS02006112           JUNCTION        2.43          1.435        0.245
  WS02006113           JUNCTION        1.52          1.247        0.683
  WS02006115           JUNCTION        1.76          1.012        1.238
  WS02006116           JUNCTION        1.77          0.948        1.342
  WS02006228           JUNCTION        2.90          2.200        0.000
  WS02006229           JUNCTION        1.11          1.052        0.018
  WS02006230           JUNCTION        2.07          1.570        0.000
  WS02006231           JUNCTION        2.30          1.491        0.039
  WS02006232           JUNCTION        2.99          1.480        0.000
  WS02006234           JUNCTION        2.60          1.240        0.000
  WS02006235           JUNCTION        2.71          1.290        0.000
  WS02006238           JUNCTION        2.81          1.300        0.130
  WS02006239           JUNCTION        2.70          1.290        0.000
  WS02006240           JUNCTION        2.71          1.390        0.000
  WS02006242           JUNCTION        3.02          0.820        0.000
  WS02006243           JUNCTION        2.73          0.770        0.000
  WS02006245           JUNCTION        2.72          0.850        0.000
  WS02006247           JUNCTION        2.79          0.760        0.000
  WS02006248           JUNCTION        2.69          0.380        0.000
  WS02006249           JUNCTION        2.75          0.390        0.000
  WS02006251           JUNCTION        2.37          1.180        0.000
  WS02006252           JUNCTION        3.53          1.100        0.000
  WS02006253           JUNCTION        2.38          2.299        0.181
  WS02006256           JUNCTION        7.50          2.050        0.000
  WS02006280           JUNCTION        0.93          0.702        0.078
  WS02006284           JUNCTION        0.82          0.678        0.122
  WS02006287           JUNCTION        0.72          0.747        0.143
  YS02001580           JUNCTION        0.74          0.450        0.000
  YS02001583           JUNCTION        0.75          0.500        0.000
  YS02001586           JUNCTION        0.94          0.510        0.000
  YS02001590           JUNCTION        1.03          0.750        0.000
  YS02001593           JUNCTION        1.03          0.840        0.000
  YS02001596           JUNCTION        1.15          1.070        0.000
  YS02001600           JUNCTION        1.33          1.190        0.000
  YS02001601           JUNCTION        1.68          1.440        0.000
  YS02001602           JUNCTION        1.60          1.270        0.000
  YS02001605           JUNCTION        1.56          1.180        0.000
  YS02001607           JUNCTION        1.02          0.656        0.024
  YS02001610           JUNCTION        1.05          0.680        0.000
  YS02001613           JUNCTION        1.01          0.675        0.025
  YS02001616           JUNCTION        0.97          0.610        0.000
  YS02001619           JUNCTION        0.95          0.610        0.000
  YS02001622           JUNCTION        0.95          0.620        0.000
  YS02001625           JUNCTION        1.16          0.780        0.000
  YS02001629           JUNCTION        0.89          0.470        0.000
  YS02001633           JUNCTION        1.19          1.019        0.041
  YS02001641           JUNCTION        1.14          0.961        0.139
  YS02001644           JUNCTION        1.12          0.920        0.000
  YS02001647           JUNCTION        0.89          0.830        0.070
  YS02001649           JUNCTION        1.06          1.050        0.000
  YS02001652           JUNCTION        0.81          1.130        0.000
  YS02001655           JUNCTION        0.55          0.979        0.221
  YS02001658           JUNCTION        0.25          0.989        0.311
  YS02001661           JUNCTION        0.02          0.590        0.800
  YS02001745           JUNCTION        0.01          1.005        0.345
  YS02001748           JUNCTION        0.17          1.190        0.000
  YS02001751           JUNCTION        0.36          1.200        0.000
  YS02001754           JUNCTION        0.68          1.150        0.000
  YS02001757           JUNCTION        1.14          1.210        0.000
  YS02001759           JUNCTION        1.03          1.206        0.004
  YS02001762           JUNCTION        0.99          1.150        0.000
  YS02001765           JUNCTION        0.92          1.100        0.000
  YS02001767           JUNCTION        0.88          1.030        0.000
  YS02001770           JUNCTION        0.85          0.920        0.000
  YS02001774           JUNCTION        0.96          1.017        0.033
  YS02001779           JUNCTION        0.66          0.680        0.000
  YS02001783           JUNCTION        0.64          0.895        0.705
  YS02001784           JUNCTION        0.62          0.604        0.886
  YS02001786           JUNCTION        0.50          0.208        1.222
  YS02001882           JUNCTION        0.58          0.830        0.000
  YS02001884           JUNCTION        0.59          0.804        0.066
  YS02001887           JUNCTION        0.63          0.831        0.119
  YS02001890           JUNCTION        0.65          0.760        0.000
  YS02001895           JUNCTION        0.57          0.647        0.103
  YS02001898           JUNCTION        0.56          0.607        0.133
  YS02001901           JUNCTION        0.62          0.723        0.147
  YS02001904           JUNCTION        0.61          0.662        0.188
  YS02001907           JUNCTION        0.86          0.950        0.000
  YS02001910           JUNCTION        0.68          1.029        0.071
  YS02001915           JUNCTION        0.58          0.982        0.018
  YS02001918           JUNCTION        0.49          0.810        0.000
  YS02001920           JUNCTION        0.50          1.115        0.025
  YS02001923           JUNCTION        0.11          0.820        0.000
  YS02001926           JUNCTION        0.14          0.900        0.000
  YS02001929           JUNCTION        0.01          0.780        0.000
  YS02006553           JUNCTION        0.89          1.039        0.151
  YS02006556           JUNCTION        0.77          1.062        0.288
  YS02006558           JUNCTION        0.76          1.139        0.261
  YS02006561           JUNCTION        0.45          0.681        0.469
  YS02163301           JUNCTION        1.17          0.969        0.061
  YS02163601           JUNCTION        1.23          1.057        0.023
  YS02164001           JUNCTION        1.15          0.971        0.129
  YSB1154              JUNCTION        1.06          1.302        0.098
  YSB1171              JUNCTION        1.07          1.100        0.000
  YSB1174              JUNCTION        0.94          1.156        0.094
  YSB6556              JUNCTION        0.86          1.100        0.000
  
  
  *********************
  Node Flooding Summary
  *********************
  
  Flooding refers to all water that overflows a node, whether it ponds or not.
  --------------------------------------------------------------------------
                                                             Total   Maximum
                                 Maximum   Time of Max       Flood    Ponded
                        Hours       Rate    Occurrence      Volume     Depth
  Node                 Flooded       LPS   days hr:min    10^6 ltr    Meters
  --------------------------------------------------------------------------
  HS02004770              0.43   1095.89      0  01:39       0.854     0.000
  HS02004777              0.01     69.93      0  01:34       0.001     0.000
  HS02004785              0.01     46.81      0  01:34       0.000     0.000
  HS02004788              0.01    581.67      0  01:34       0.006     0.000
  HS02004792              0.45   1525.56      0  01:40       1.397     0.000
  HS02004799              0.22    299.61      0  01:37       0.116     0.000
  HS02004807              0.12    244.26      0  01:40       0.064     0.000
  HS02004817              0.01     25.47      0  01:34       0.000     0.000
  HS02004824              0.01     38.25      0  01:34       0.000     0.000
  HS02004830              0.01     16.18      0  01:34       0.000     0.000
  HS02004837              0.01    248.88      0  01:34       0.000     0.000
  HS02004842              0.01     53.58      0  01:36       0.001     0.000
  HS02004856              0.01    139.45      0  01:36       0.001     0.000
  HS02004862              0.01    310.35      0  01:36       0.006     0.000
  HS02004870              0.01    494.78      0  01:36       0.003     0.000
  HS02004876              0.01    285.83      0  01:36       0.001     0.000
  HS02004881              0.01     58.71      0  01:36       0.000     0.000
  HS02004901              0.54    607.45      0  01:41       0.818     0.000
  WS02006109              0.52    288.98      0  01:39       0.314     0.000
  WS02006228              0.01      1.17      0  01:36       0.000     0.000
  WS02006230              0.83    575.97      0  01:37       1.180     0.000
  WS02006232              0.20      0.68      0  02:10       0.000     0.000
  WS02006234              0.92    128.72      0  01:44       0.302     0.000
  WS02006235              0.01      5.40      0  02:35       0.000     0.000
  WS02006239              0.01    212.45      0  01:27       0.000     0.000
  WS02006240              0.01    269.57      0  01:27       0.000     0.000
  WS02006242              1.03    338.00      0  01:27       0.460     0.000
  WS02006243              0.01    242.71      0  01:27       0.000     0.000
  WS02006245              0.01    188.14      0  01:27       0.000     0.000
  WS02006247              0.01    127.70      0  01:27       0.000     0.000
  WS02006248              1.56    345.57      0  01:34       1.545     0.000
  WS02006249              2.19   1298.77      0  01:40       5.272     0.000
  WS02006251              0.01     81.83      0  01:36       0.000     0.000
  WS02006252              0.59    674.94      0  01:36       0.689     0.000
  WS02006256              1.33    295.27      0  01:35       0.824     0.000
  YS02001580              0.01    117.94      0  01:34       0.001     0.000
  YS02001583              0.01    195.65      0  01:34       0.000     0.000
  YS02001586              0.59    365.77      0  01:43       0.407     0.000
  YS02001590              0.01    120.51      0  01:32       0.000     0.000
  YS02001593              0.01      2.34      0  01:34       0.000     0.000
  YS02001596              0.01      1.45      0  01:34       0.000     0.000
  YS02001600              0.01      5.03      0  01:33       0.000     0.000
  YS02001601              0.85   1175.73      0  01:41       1.621     0.000
  YS02001602              0.74     62.04      0  02:05       0.150     0.000
  YS02001605              0.01      4.77      0  01:34       0.000     0.000
  YS02001610              0.65    650.80      0  01:42       0.786     0.000
  YS02001616              0.01     62.47      0  01:34       0.000     0.000
  YS02001619              0.01     75.18      0  01:34       0.000     0.000
  YS02001622              0.01    143.31      0  01:34       0.000     0.000
  YS02001625              0.61   1275.08      0  01:42       1.341     0.000
  YS02001629              0.11    308.09      0  01:34       0.057     0.000
  YS02001644              0.21    826.48      0  01:38       0.325     0.000
  YS02001649              0.01    142.52      0  01:37       0.001     0.000
  YS02001652              0.01     39.65      0  01:37       0.000     0.000
  YS02001748              0.01     76.41      0  01:37       0.000     0.000
  YS02001751              0.01     45.61      0  01:37       0.000     0.000
  YS02001754              0.01     79.09      0  01:37       0.000     0.000
  YS02001757              0.01     61.95      0  01:37       0.000     0.000
  YS02001762              0.01     30.91      0  01:37       0.000     0.000
  YS02001765              0.01     26.88      0  01:37       0.000     0.000
  YS02001767              0.01     16.05      0  01:37       0.000     0.000
  YS02001770              0.01     86.71      0  01:36       0.001     0.000
  YS02001779              0.18    468.53      0  01:36       0.157     0.000
  YS02001882              0.01     55.91      0  01:34       0.000     0.000
  YS02001890              0.17    292.54      0  01:38       0.103     0.000
  YS02001907              0.42   1794.13      0  01:39       1.401     0.000
  YS02001918              0.01    221.80      0  01:36       0.003     0.000
  YS02001923              0.01    195.95      0  01:36       0.001     0.000
  YS02001926              0.01    453.51      0  01:36       0.003     0.000
  YS02001929              0.01    835.64      0  01:36       0.004     0.000
  YSB1171                 0.33   1021.99      0  01:40       0.708     0.000
  YSB6556                 0.01      9.36      0  01:35       0.000     0.000
  
  
  **********************
  Storage Volume Summary
  **********************
  
  --------------------------------------------------------------------------------------------------
                         Average     Avg  Evap Exfil       Maximum     Max    Time of Max    Maximum
                          Volume    Pcnt  Pcnt  Pcnt        Volume    Pcnt     Occurrence    Outflow
  Storage Unit           1000 m3    Full  Loss  Loss       1000 m3    Full    days hr:min        LPS
  --------------------------------------------------------------------------------------------------
  CC-storage               2.427      38     0     0         4.765      74       0  02:18    1783.53
  JK-storage               0.070      24     0     0         0.213      73       0  01:45    2300.00
  XR-storage               0.951      66     0     0         1.111      77       0  08:00     380.00
  
  
  ***********************
  Outfall Loading Summary
  ***********************
  
  -----------------------------------------------------------
                         Flow       Avg       Max       Total
                         Freq      Flow      Flow      Volume
  Outfall Node           Pcnt       LPS       LPS    10^6 ltr
  -----------------------------------------------------------
  CC-1                  23.45    683.00    683.00       4.166
  CC-2                  17.55    683.00    683.00       3.151
  JK-1                   7.74   1000.00   1000.00       2.143
  JK-2                   4.49   1000.00   1000.00       1.171
  WSC                   99.96    674.58   1524.64      17.061
  -----------------------------------------------------------
  System                30.64   4040.58   4820.14      27.692
  
  
  ********************
  Link Flow Summary
  ********************
  
  -----------------------------------------------------------------------------
                                 Maximum  Time of Max   Maximum    Max/    Max/
                                  |Flow|   Occurrence   |Veloc|    Full    Full
  Link                 Type          LPS  days hr:min     m/sec    Flow   Depth
  -----------------------------------------------------------------------------
  1                    CONDUIT   1524.64     0  01:43      3.71    0.53    0.52
  HS02004478WS02006287 CONDUIT   2308.12     0  01:37      2.56    0.65    1.00
  HS02004479HS02004480 CONDUIT    545.91     0  01:35      0.78    0.53    1.00
  HS02004480HS02004478 CONDUIT   2184.21     0  01:34      3.12    9.20    1.00
  HS02004770HS02004777 CONDUIT    828.95     0  01:34      1.18    1.52    1.00
  HS02004777HS02004785 CONDUIT    835.25     0  01:33      1.27    1.03    1.00
  HS02004785HS02004788 CONDUIT    810.67     0  01:34      1.34    6.11    1.00
  HS02004788HS02004792 CONDUIT    813.19     0  01:39      1.42    0.54    1.00
  HS02004792HS02004799 CONDUIT   1553.27     0  01:34      2.22    0.95    1.00
  HS02004799HS02004480 CONDUIT   1751.59     0  01:34      2.50    2.21    1.00
  HS02004802HS02004478 CONDUIT   1233.69     0  01:43      1.76    1.09    1.00
  HS02004807HS02004802 CONDUIT   1233.81     0  01:44      1.76    2.36    1.00
  HS02004817HS02004807 CONDUIT   1014.14     0  01:41      1.45    0.60    1.00
  HS02004817HS02004824 CONDUIT   1013.64     0  01:41      1.45    0.46    1.00
  HS02004824HS02004830 CONDUIT    755.60     0  01:34      1.08    0.99    1.00
  HS02004830HS02004837 CONDUIT    761.35     0  01:34      1.15    0.76    1.00
  HS02004837HS02004842 CONDUIT    989.84     0  01:35      1.41    0.59    1.00
  HS02004842HS02004848 CONDUIT    986.27     0  01:34      1.61    0.57    1.00
  HS02004848HS02004852 CONDUIT   1214.00     0  01:35      1.73    1.37    1.00
  HS02004852HS02004856 CONDUIT   1215.92     0  01:35      1.74    1.39    1.00
  HS02004856HS02004862 CONDUIT   1355.97     0  01:35      1.96    1.35    1.00
  HS02004862HS02004870 CONDUIT   1485.23     0  01:36      2.25    1.60    1.00
  HS02004870HS02004876 CONDUIT   1266.04     0  01:36      1.81    0.84    1.00
  HS02004876HS02004881 CONDUIT   1470.58     0  01:36      2.16   15.64    1.00
  HS02004881HS02006253 CONDUIT   1598.01     0  01:36      2.28    0.31    1.00
  HS02004901HS02004770 CONDUIT    265.79     0  01:59      0.38    1.00    1.00
  WS02001211WS02001212 CONDUIT    237.21     0  01:38      0.54    0.18    0.70
  WS02001212WS02001213 CONDUIT    272.07     0  01:39      1.04    0.42    0.57
  WS02001213WS02003059 CONDUIT    234.38     0  01:40      0.46    0.39    0.91
  WS02003059WS02003060 CONDUIT    236.70     0  01:40      0.65    0.15    0.82
  WS02003060WS02003069 CONDUIT   1528.12     0  01:41      2.10    0.60    0.62
  WS02003066WSF200     CONDUIT   1314.60     0  01:39      3.45    0.22    0.39
  WS02003067WS02003066 CONDUIT   1314.92     0  01:39      2.02    0.42    0.56
  WS02003069WS02003072 CONDUIT   1522.64     0  01:42      1.90    0.73    0.67
  WS02003072WS02003073 CONDUIT   1522.63     0  01:42      2.06    3.29    0.62
  WS02004138WS02004139 CONDUIT    190.00     0  00:32      2.15    0.04    0.42
  WS02004139WS02001211 CONDUIT    255.32     0  01:36      0.54    0.32    0.61
  WS02004401WS02004402 CONDUIT   1310.18     0  01:39      1.67    1.57    1.00
  WS02004402WS02004403 CONDUIT   1310.01     0  01:39      1.67    1.88    1.00
  WS02004403WS02004404 CONDUIT   1310.70     0  01:39      1.67    0.95    1.00
  WS02004404WS02004405 CONDUIT   1310.81     0  01:38      1.67   12.84    1.00
  WS02004405WS02004406 CONDUIT   1311.44     0  01:39      1.67    2.59    1.00
  WS02004406WS02004407 CONDUIT   1311.08     0  01:39      1.92    0.59    0.97
  WS02004407WS02004409 CONDUIT   1310.33     0  01:39      2.07    0.46    0.97
  WS02004409WS02004410 CONDUIT   1310.63     0  01:39      1.67    1.70    1.00
  WS02004410WS02004411 CONDUIT   1310.77     0  01:39      1.67    1.79    1.00
  WS02004411WS02004412 CONDUIT   1310.43     0  01:39      1.67    1.86    1.00
  WS02004412WS02004413 CONDUIT   1310.45     0  01:39      1.67    0.88    1.00
  WS02004413WS02003067 CONDUIT   1310.48     0  01:39      2.03    0.56    0.77
  WS02006109WS02006110 CONDUIT   1123.76     0  02:05      2.24    2.16    1.00
  WS02006110WS02006113 CONDUIT   1123.65     0  02:05      2.24    1.02    1.00
  WS02006111WS02006112 CONDUIT   1123.67     0  02:05      2.24    0.53    1.00
  WS02006112WS02006115 CONDUIT   1310.31     0  01:39      1.67    0.77    1.00
  WS02006113WS02006111 CONDUIT   1123.46     0  02:05      2.75    1.35    1.00
  WS02006115WS02006116 CONDUIT   1309.71     0  01:38      1.67    1.68    1.00
  WS02006116WS02004401 CONDUIT   1310.19     0  01:38      1.67    1.81    1.00
  WS02006228WS02006109 CONDUIT   1290.36     0  01:37      2.57    5.64    1.00
  WS02006229WS02006228 CONDUIT   1291.66     0  01:38      2.57    4.28    1.00
  WS02006230WS02006229 CONDUIT   1018.71     0  01:37      2.65   22.67    1.00
  WS02006231WS02006230 CONDUIT    566.19     0  04:15      1.52    8.59    1.00
  WS02006232WS02006231 CONDUIT    560.49     0  04:15      1.46    1.17    1.00
  WS02006234WS02006232 CONDUIT    558.63     0  04:15      1.45    1.13    1.00
  WS02006235WS02006234 CONDUIT    555.47     0  04:15      1.44    5.86    1.00
  WS02006238WS02006235 CONDUIT    427.05     0  04:16      1.45    0.95    1.00
  WS02006239WS02006238 CONDUIT    428.32     0  04:16      1.12    1.37    1.00
  WS02006240WS02006239 CONDUIT    428.49     0  04:16      1.26    1.35    1.00
  WS02006242WS02006240 CONDUIT    426.85     0  04:16      1.14    1.70    1.00
  WS02006243WS02006242 CONDUIT    426.58     0  04:16      1.34    0.91    1.00
  WS02006245WS02006243 CONDUIT    426.78     0  04:16      1.39    1.26    1.00
  WS02006247WS02006245 CONDUIT    426.65     0  04:16      1.37    3.38    1.00
  WS02006248WS02006247 CONDUIT    426.60     0  04:16      1.41    0.93    1.00
  WS02006249WS02006248 CONDUIT    426.20     0  03:37      1.38    2.33    1.00
  WS02006251WS02006249 CONDUIT   1362.44     0  01:36      3.54    3.93    1.00
  WS02006252WS02006251 CONDUIT    411.42     0  01:30     17.77    1.51    1.00
  WS02006253WS02006251 CONDUIT   1635.26     0  01:36      4.25    4.90    1.00
  WS02006256WS02006235 CONDUIT    288.93     0  00:00      4.23    3.06    1.00
  WS02006280WS02006229 CONDUIT   2310.20     0  01:37      4.40    0.49    1.00
  WS02006284WS02006280 CONDUIT   2308.84     0  01:37      3.02    0.97    1.00
  WS02006287WS02006284 CONDUIT   2308.05     0  01:38      2.94    1.07    1.00
  WSF200WS02003060     CONDUIT   1320.53     0  01:39      2.69    0.29    0.51
  YS02001580YS02001583 CONDUIT    172.71     0  01:34      0.90    0.67    1.00
  YS02001583YS02001586 CONDUIT    207.26     0  01:34      0.93    0.31    1.00
  YS02001586YS02001590 CONDUIT    318.48     0  01:47      1.27    0.56    1.00
  YS02001590YS02001593 CONDUIT    318.32     0  01:47      1.13    2.00    1.00
  YS02001593YS02001596 CONDUIT    318.12     0  01:47      1.73    0.50    1.00
  YS02001596YS02001600 CONDUIT    318.24     0  01:47      1.22    0.62    1.00
  YS02001600YS02001601 CONDUIT    318.03     0  01:47      1.12    0.55    1.00
  YS02001601YS02001602 CONDUIT    574.75     0  01:34      2.03    2.08    1.00
  YS02001602YS02001605 CONDUIT    574.59     0  01:34      2.03   12.16    1.00
  YS02001605YS02001607 CONDUIT    574.30     0  01:34      2.03    3.15    1.00
  YS02001607YS02001610 CONDUIT    538.48     0  01:34      0.71    0.51    1.00
  YS02001610YS02001613 CONDUIT    520.52     0  01:34      0.67    0.60    1.00
  YS02001613YS02001616 CONDUIT    491.70     0  01:34      0.66    0.42    1.00
  YS02001616YS02001619 CONDUIT    481.71     0  01:34      0.69    0.84    1.00
  YS02001619YS02001622 CONDUIT    935.73     0  01:34      1.28    1.38    1.00
  YS02001622YS02001625 CONDUIT    929.45     0  01:38      1.18    0.50    1.00
  YS02001625YS02001629 CONDUIT    923.06     0  01:34      1.18    0.44    1.00
  YS02001629YS02163301 CONDUIT    897.03     0  01:35      1.14    1.10    1.00
  YS02001633YS02163601 CONDUIT   1437.28     0  01:35      1.83    1.51    1.00
  YS02001641YS02001644 CONDUIT   1434.51     0  01:35      1.83    4.64    1.00
  YS02001644YS02001647 CONDUIT   1953.17     0  01:35      2.49    1.15    1.00
  YS02001647YS02001649 CONDUIT   1957.16     0  01:35      2.49    1.03    1.00
  YS02001649YS02001757 CONDUIT   2215.98     0  01:36      2.82    1.34    1.00
  YS02001652YS02001649 CONDUIT    995.80     0  01:38      1.27    0.49    1.00
  YS02001655YS02001652 CONDUIT    994.23     0  01:38      1.53    0.48    1.00
  YS02001658YS02001655 CONDUIT    991.98     0  01:38      2.05    0.42    1.00
  YS02001661YS02001658 CONDUIT    990.40     0  01:38      2.48    0.39    1.00
  YS02001664YS02001661 CONDUIT    986.26     0  01:38      2.57    0.31    0.95
  YS02001745YS02001748 CONDUIT    670.32     0  01:37      2.44    0.26    1.00
  YS02001748YS02001751 CONDUIT    672.34     0  01:37      1.91    0.34    1.00
  YS02001751YS02001754 CONDUIT    673.85     0  01:37      1.59    0.32    1.00
  YS02001754YS02001757 CONDUIT    675.74     0  01:37      0.86    0.27    1.00
  YS02001757CaochengTiaoxuchi CONDUIT   3567.62     0  01:38      4.75    1.54    1.00
  YS02001759YS02001757 CONDUIT   1528.27     0  01:37      1.95    1.09    1.00
  YS02001762YS02001759 CONDUIT    830.20     0  01:37      1.06    0.96    1.00
  YS02001765YS02001762 CONDUIT    825.17     0  01:37      1.05    0.77    1.00
  YS02001767YS02001765 CONDUIT    830.50     0  01:37      1.06    1.04    1.00
  YS02001770YS02001767 CONDUIT    836.13     0  01:37      1.06    3.31    1.00
  YS02001774YS02001770 CONDUIT    528.10     0  01:36      0.67    0.34    1.00
  YS02001779YS02001774 CONDUIT    490.65     0  01:36      0.64    0.25    1.00
  YS02001783YS02001784 CONDUIT   1166.07     0  01:37      2.32    1.61    1.00
  YS02001784YS02001785 CONDUIT   1168.46     0  01:37      2.32    2.72    1.00
  YS02001786YS02001788 CONDUIT   1169.42     0  01:37      2.49    2.25    0.89
  YS02001788YS02001790 CONDUIT   1175.60     0  01:36      2.75    0.87    0.84
  YS02001790YS02001791 CONDUIT   1293.48     0  01:40      3.44    1.41    0.71
  YS02001791YS02001793 CONDUIT   1251.40     0  01:38      6.70    0.54    0.45
  YS02001793JiankangQianchi CONDUIT   1218.15     0  01:39      2.40    0.10    0.65
  YS02001882YS02001884 CONDUIT     95.23     0  01:34      0.17    0.11    1.00
  YS02001884YS02001887 CONDUIT    137.97     0  01:34      0.18    0.18    1.00
  YS02001887YS02001890 CONDUIT    815.70     0  01:38      1.04    1.40    1.00
  YS02001890YS02001895 CONDUIT    597.70     0  01:35      0.76    0.28    1.00
  YS02001895YS02001898 CONDUIT    602.03     0  01:35      0.77    1.04    1.00
  YS02001898YS02001901 CONDUIT    606.65     0  01:35      0.77    0.39    1.00
  YS02001901YS02001904 CONDUIT    607.77     0  01:35      0.77    0.94    1.00
  YS02001904YS02001907 CONDUIT    605.21     0  01:35      0.77    0.21    1.00
  YS02001907YS02006553 CONDUIT    791.28     0  02:03      0.88    0.93    1.00
  YS02001910YS02001907 CONDUIT   1371.78     0  01:40      1.75    0.77    1.00
  YS02001915YS02001910 CONDUIT   1372.33     0  01:39      1.75    0.68    1.00
  YS02001918YS02001915 CONDUIT    721.21     0  01:35      0.93    0.40    1.00
  YS02001920YS02001918 CONDUIT    698.82     0  01:35      0.89    0.68    1.00
  YS02001923YS02001920 CONDUIT    718.22     0  01:35      0.97    0.32    1.00
  YS02001926YS02001923 CONDUIT   1002.85     0  01:36      1.46    1.43    1.00
  YS02001929YS02001926 CONDUIT    792.57     0  01:36      1.24    0.38    1.00
  YS02006553YS02006556 CONDUIT    791.89     0  02:03      1.01    0.68    1.00
  YS02006556YS02006558 CONDUIT    793.08     0  02:03      1.01    0.63    1.00
  YS02006558YS02006561 CONDUIT   1174.47     0  01:35      4.15    2.60    1.00
  YS02006561YS02001783 CONDUIT   1166.65     0  01:37      2.32    0.60    1.00
  YS02163301YS02001633 CONDUIT    896.73     0  01:35      1.14    0.84    1.00
  YS02163601YS02164001 CONDUIT   1436.32     0  01:35      1.83    1.27    1.00
  YS02164001YS02001641 CONDUIT   1435.53     0  01:35      1.83    1.96    1.00
  YSB1154YSB6556       CONDUIT    430.19     0  01:40      1.12    0.77    1.00
  YSB1171HS02004479    CONDUIT    547.82     0  01:35      1.09    0.37    1.00
  YSB1174YSB1171       CONDUIT    382.76     0  01:38      0.99    0.59    1.00
  YSB6556YSB1171       CONDUIT    430.65     0  01:40      1.12    0.44    1.00
  CC-R1                PUMP       683.00     0  00:00              1.00
  CC-R2                PUMP       683.00     0  00:00              1.00
  CC-S1                PUMP       200.00     0  00:00              1.00
  CC-S2                PUMP       200.00     0  00:00              1.00
  JK-R1                PUMP      1000.00     0  00:00              1.00
  JK-R2                PUMP      1000.00     0  00:00              1.00
  JK-S                 PUMP       300.00     0  00:00              1.00
  XR-1                 PUMP        95.00     0  00:00              1.00
  XR-2                 PUMP        95.00     0  00:00              1.00
  XR-3                 PUMP        95.00     0  00:00              1.00
  XR-4                 PUMP        95.00     0  00:00              1.00
  
  
  ***************************
  Flow Classification Summary
  ***************************
  
  -------------------------------------------------------------------------------------
                      Adjusted    ---------- Fraction of Time in Flow Class ---------- 
                       /Actual         Up    Down  Sub   Sup   Up    Down  Norm  Inlet 
  Conduit               Length    Dry  Dry   Dry   Crit  Crit  Crit  Crit  Ltd   Ctrl  
  -------------------------------------------------------------------------------------
  1                       1.00   0.00  0.00  0.00  0.00  1.00  0.00  0.00  0.51  0.00
  HS02004478WS02006287    1.00   0.11  0.00  0.00  0.66  0.23  0.00  0.00  0.59  0.00
  HS02004479HS02004480    1.00   0.02  0.00  0.00  0.98  0.00  0.00  0.00  0.11  0.00
  HS02004480HS02004478    1.00   0.10  0.00  0.00  0.62  0.00  0.00  0.28  0.00  0.00
  HS02004770HS02004777    1.00   0.00  0.10  0.00  0.90  0.00  0.00  0.00  0.02  0.00
  HS02004777HS02004785    1.00   0.00  0.00  0.00  1.00  0.00  0.00  0.00  0.11  0.00
  HS02004785HS02004788    1.00   0.00  0.00  0.00  1.00  0.00  0.00  0.00  0.00  0.00
  HS02004788HS02004792    1.00   0.00  0.00  0.00  0.99  0.01  0.00  0.00  0.88  0.00
  HS02004792HS02004799    1.00   0.00  0.00  0.00  0.99  0.01  0.00  0.00  0.83  0.00
  HS02004799HS02004480    1.00   0.00  0.02  0.00  0.89  0.00  0.08  0.00  0.00  0.00
  HS02004802HS02004478    1.00   0.10  0.00  0.00  0.90  0.00  0.00  0.00  0.02  0.00
  HS02004807HS02004802    1.00   0.10  0.00  0.00  0.90  0.00  0.00  0.01  0.00  0.00
  HS02004817HS02004807    1.00   0.00  0.10  0.00  0.90  0.00  0.00  0.00  0.01  0.00
  HS02004817HS02004824    1.00   0.00  0.00  0.00  1.00  0.00  0.00  0.00  0.79  0.00
  HS02004824HS02004830    1.00   0.00  0.00  0.00  1.00  0.00  0.00  0.00  0.00  0.00
  HS02004830HS02004837    1.00   0.00  0.00  0.00  1.00  0.00  0.00  0.00  0.86  0.00
  HS02004837HS02004842    1.00   0.00  0.00  0.00  1.00  0.00  0.00  0.00  0.11  0.00
  HS02004842HS02004848    1.00   0.00  0.10  0.00  0.90  0.00  0.00  0.00  0.55  0.00
  HS02004848HS02004852    1.00   0.10  0.00  0.00  0.90  0.00  0.00  0.00  0.70  0.00
  HS02004852HS02004856    1.00   0.10  0.00  0.00  0.90  0.00  0.00  0.00  0.64  0.00
  HS02004856HS02004862    1.00   0.00  0.11  0.00  0.89  0.00  0.00  0.00  0.73  0.00
  HS02004862HS02004870    1.00   0.00  0.00  0.00  1.00  0.00  0.00  0.00  0.02  0.00
  HS02004870HS02004876    1.00   0.00  0.00  0.00  0.99  0.01  0.00  0.00  0.84  0.00
  HS02004876HS02004881    1.00   0.01  0.00  0.00  0.80  0.19  0.00  0.00  0.00  0.00
  HS02004881HS02006253    1.00   0.02  0.02  0.00  0.72  0.01  0.00  0.23  0.40  0.00
  HS02004901HS02004770    1.00   0.10  0.00  0.00  0.90  0.00  0.00  0.00  0.00  0.00
  WS02001211WS02001212    1.00   0.00  0.02  0.00  0.98  0.00  0.00  0.00  0.00  0.00
  WS02001212WS02001213    1.00   0.02  0.00  0.00  0.69  0.00  0.29  0.00  0.00  0.00
  WS02001213WS02003059    1.00   0.00  0.00  0.00  1.00  0.00  0.00  0.00  0.00  0.00
  WS02003059WS02003060    1.00   0.00  0.00  0.00  1.00  0.00  0.00  0.00  0.03  0.00
  WS02003060WS02003069    1.00   0.00  0.00  0.00  0.98  0.02  0.00  0.00  0.40  0.00
  WS02003066WSF200        1.00   0.06  0.00  0.00  0.00  0.94  0.00  0.00  0.62  0.00
  WS02003067WS02003066    1.00   0.06  0.00  0.00  0.94  0.00  0.00  0.00  0.00  0.00
  WS02003069WS02003072    1.00   0.00  0.00  0.00  1.00  0.00  0.00  0.00  0.44  0.00
  WS02003072WS02003073    1.00   0.00  0.00  0.00  0.00  0.00  0.00  1.00  0.00  0.00
  WS02004138WS02004139    1.00   0.00  0.00  0.00  0.98  0.00  0.00  0.01  0.98  0.00
  WS02004139WS02001211    1.00   0.00  0.00  0.00  1.00  0.00  0.00  0.00  0.00  0.00
  WS02004401WS02004402    1.00   0.02  0.00  0.00  0.98  0.00  0.00  0.00  0.00  0.00
  WS02004402WS02004403    1.00   0.02  0.00  0.00  0.98  0.00  0.00  0.00  0.00  0.00
  WS02004403WS02004404    1.00   0.00  0.02  0.00  0.98  0.00  0.00  0.00  0.00  0.00
  WS02004404WS02004405    1.00   0.00  0.00  0.00  1.00  0.00  0.00  0.00  0.01  0.00
  WS02004405WS02004406    1.00   0.00  0.00  0.00  1.00  0.00  0.00  0.00  0.00  0.00
  WS02004406WS02004407    1.00   0.00  0.03  0.00  0.96  0.00  0.00  0.00  0.00  0.00
  WS02004407WS02004409    1.00   0.04  0.00  0.00  0.94  0.02  0.00  0.00  0.78  0.00
  WS02004409WS02004410    1.00   0.04  0.00  0.00  0.96  0.00  0.00  0.00  0.00  0.00
  WS02004410WS02004411    1.00   0.04  0.00  0.00  0.96  0.00  0.00  0.00  0.00  0.00
  WS02004411WS02004412    1.00   0.04  0.00  0.00  0.96  0.00  0.00  0.00  0.00  0.00
  WS02004412WS02004413    1.00   0.04  0.00  0.00  0.95  0.01  0.00  0.00  0.00  0.00
  WS02004413WS02003067    1.00   0.05  0.01  0.00  0.00  0.00  0.94  0.00  0.00  0.00
  WS02006109WS02006110    1.00   0.00  0.01  0.00  0.99  0.00  0.01  0.00  0.00  0.00
  WS02006110WS02006113    1.00   0.01  0.01  0.00  0.99  0.00  0.00  0.00  0.00  0.00
  WS02006111WS02006112    1.00   0.01  0.00  0.00  0.98  0.00  0.00  0.00  0.74  0.00
  WS02006112WS02006115    1.00   0.01  0.00  0.00  0.98  0.00  0.00  0.00  0.00  0.00
  WS02006113WS02006111    1.00   0.01  0.00  0.00  0.25  0.74  0.00  0.00  0.12  0.00
  WS02006115WS02006116    1.00   0.02  0.00  0.00  0.98  0.00  0.00  0.00  0.00  0.00
  WS02006116WS02004401    1.00   0.02  0.00  0.00  0.98  0.00  0.00  0.00  0.00  0.00
  WS02006228WS02006109    1.00   0.00  0.00  0.00  1.00  0.00  0.00  0.00  0.00  0.00
  WS02006229WS02006228    1.00   0.00  0.00  0.00  0.99  0.00  0.00  0.00  0.01  0.00
  WS02006230WS02006229    1.00   0.00  0.00  0.00  0.99  0.00  0.00  0.01  0.03  0.00
  WS02006231WS02006230    1.00   0.00  0.00  0.00  0.71  0.00  0.29  0.00  0.00  0.00
  WS02006232WS02006231    1.00   0.00  0.00  0.00  0.99  0.00  0.00  0.00  0.00  0.00
  WS02006234WS02006232    1.00   0.00  0.00  0.00  1.00  0.00  0.00  0.00  0.01  0.00
  WS02006235WS02006234    1.00   0.00  0.00  0.00  0.95  0.00  0.05  0.00  0.00  0.00
  WS02006238WS02006235    1.00   0.00  0.00  0.00  1.00  0.00  0.00  0.00  0.00  0.00
  WS02006239WS02006238    1.00   0.00  0.00  0.00  1.00  0.00  0.00  0.00  0.06  0.00
  WS02006240WS02006239    1.00   0.00  0.00  0.00  0.86  0.00  0.00  0.14  0.02  0.00
  WS02006242WS02006240    1.00   0.00  0.00  0.00  0.99  0.00  0.01  0.00  0.00  0.00
  WS02006243WS02006242    1.00   0.00  0.00  0.00  1.00  0.00  0.00  0.00  0.41  0.00
  WS02006245WS02006243    1.00   0.00  0.00  0.00  0.93  0.00  0.00  0.07  0.00  0.00
  WS02006247WS02006245    1.00   0.00  0.00  0.00  0.99  0.00  0.00  0.01  0.00  0.00
  WS02006248WS02006247    1.00   0.00  0.00  0.00  1.00  0.00  0.00  0.00  0.41  0.00
  WS02006249WS02006248    1.00   0.00  0.00  0.00  0.79  0.00  0.21  0.00  0.00  0.00
  WS02006251WS02006249    1.00   0.00  0.00  0.00  1.00  0.00  0.00  0.00  0.39  0.00
  WS02006252WS02006251    1.00   0.00  0.18  0.00  0.33  0.00  0.48  0.00  0.00  0.00
  WS02006253WS02006251    1.00   0.00  0.00  0.00  1.00  0.00  0.00  0.00  0.01  0.00
  WS02006256WS02006235    1.00   0.00  0.00  0.00  0.99  0.01  0.00  0.00  0.00  0.00
  WS02006280WS02006229    1.00   0.10  0.00  0.00  0.21  0.03  0.00  0.65  0.01  0.00
  WS02006284WS02006280    1.00   0.10  0.00  0.00  0.14  0.02  0.00  0.75  0.00  0.00
  WS02006287WS02006284    1.00   0.09  0.02  0.00  0.54  0.36  0.00  0.00  0.65  0.00
  WSF200WS02003060        1.00   0.00  0.06  0.00  0.39  0.54  0.00  0.00  0.41  0.00
  YS02001580YS02001583    1.00   0.18  0.58  0.00  0.24  0.00  0.00  0.00  0.68  0.00
  YS02001583YS02001586    1.00   0.23  0.45  0.00  0.31  0.00  0.00  0.00  0.68  0.00
  YS02001586YS02001590    1.00   0.10  0.00  0.00  0.58  0.07  0.00  0.26  0.33  0.00
  YS02001590YS02001593    1.00   0.10  0.00  0.00  0.16  0.00  0.74  0.00  0.00  0.00
  YS02001593YS02001596    1.00   0.10  0.00  0.00  0.19  0.01  0.00  0.70  0.02  0.00
  YS02001596YS02001600    1.00   0.10  0.00  0.00  0.27  0.02  0.00  0.62  0.04  0.00
  YS02001600YS02001601    1.00   0.10  0.00  0.00  0.90  0.00  0.00  0.00  0.59  0.00
  YS02001601YS02001602    1.00   0.10  0.00  0.00  0.90  0.00  0.00  0.00  0.00  0.00
  YS02001602YS02001605    1.00   0.10  0.00  0.00  0.90  0.00  0.00  0.00  0.00  0.00
  YS02001605YS02001607    1.00   0.10  0.00  0.00  0.90  0.00  0.00  0.00  0.00  0.00
  YS02001607YS02001610    1.00   0.10  0.00  0.00  0.90  0.00  0.00  0.00  0.01  0.00
  YS02001610YS02001613    1.00   0.10  0.00  0.00  0.90  0.00  0.00  0.00  0.00  0.00
  YS02001613YS02001616    1.00   0.10  0.00  0.00  0.90  0.00  0.00  0.00  0.00  0.00
  YS02001616YS02001619    1.00   0.10  0.00  0.00  0.90  0.00  0.00  0.00  0.00  0.00
  YS02001619YS02001622    1.00   0.10  0.00  0.00  0.90  0.00  0.00  0.00  0.29  0.00
  YS02001622YS02001625    1.00   0.10  0.00  0.00  0.90  0.00  0.00  0.00  0.03  0.00
  YS02001625YS02001629    1.00   0.10  0.02  0.00  0.22  0.00  0.67  0.00  0.00  0.00
  YS02001629YS02163301    1.00   0.10  0.00  0.00  0.89  0.00  0.00  0.00  0.00  0.00
  YS02001633YS02163601    1.00   0.00  0.00  0.00  1.00  0.00  0.00  0.00  0.14  0.00
  YS02001641YS02001644    1.00   0.00  0.00  0.00  1.00  0.00  0.00  0.00  0.00  0.00
  YS02001644YS02001647    1.00   0.00  0.11  0.00  0.89  0.00  0.00  0.00  0.00  0.00
  YS02001647YS02001649    1.00   0.00  0.11  0.00  0.47  0.42  0.00  0.00  0.56  0.00
  YS02001649YS02001757    1.00   0.00  0.00  0.00  0.74  0.26  0.00  0.00  0.39  0.00
  YS02001652YS02001649    1.00   0.00  0.00  0.00  0.98  0.02  0.00  0.00  0.71  0.00
  YS02001655YS02001652    1.00   0.00  0.00  0.00  0.25  0.01  0.00  0.74  0.05  0.00
  YS02001658YS02001655    1.00   0.00  0.10  0.00  0.69  0.21  0.00  0.00  0.66  0.00
  YS02001661YS02001658    1.00   0.10  0.00  0.00  0.44  0.46  0.00  0.00  0.70  0.00
  YS02001664YS02001661    1.00   0.10  0.00  0.00  0.74  0.16  0.00  0.00  0.85  0.00
  YS02001745YS02001748    1.00   0.00  0.00  0.00  0.15  0.01  0.00  0.84  0.06  0.00
  YS02001748YS02001751    1.00   0.00  0.00  0.00  0.82  0.18  0.00  0.00  0.77  0.00
  YS02001751YS02001754    1.00   0.00  0.00  0.00  0.23  0.00  0.00  0.77  0.04  0.00
  YS02001754YS02001757    1.00   0.00  0.00  0.00  1.00  0.00  0.00  0.00  0.78  0.00
  YS02001757CaochengTiaoxuchi    1.00   0.00  0.00  0.00  0.97  0.03  0.00  0.00  0.65  0.00
  YS02001759YS02001757    1.00   0.00  0.00  0.00  1.00  0.00  0.00  0.00  0.55  0.00
  YS02001762YS02001759    1.00   0.00  0.00  0.00  1.00  0.00  0.00  0.00  0.04  0.00
  YS02001765YS02001762    1.00   0.00  0.00  0.00  1.00  0.00  0.00  0.00  0.65  0.00
  YS02001767YS02001765    1.00   0.00  0.00  0.00  1.00  0.00  0.00  0.00  0.00  0.00
  YS02001770YS02001767    1.00   0.00  0.00  0.00  1.00  0.00  0.00  0.00  0.00  0.00
  YS02001774YS02001770    1.00   0.00  0.10  0.00  0.82  0.00  0.08  0.00  0.02  0.00
  YS02001779YS02001774    1.00   0.00  0.00  0.00  1.00  0.00  0.00  0.00  0.75  0.00
  YS02001783YS02001784    1.00   0.00  0.11  0.00  0.89  0.00  0.00  0.00  0.55  0.00
  YS02001784YS02001785    1.00   0.00  0.00  0.00  1.00  0.00  0.00  0.00  0.15  0.00
  YS02001786YS02001788    1.00   0.00  0.00  0.00  0.73  0.27  0.00  0.00  0.00  0.00
  YS02001788YS02001790    1.00   0.00  0.00  0.00  0.17  0.83  0.00  0.00  0.79  0.00
  YS02001790YS02001791    1.00   0.00  0.00  0.00  0.01  0.99  0.00  0.00  0.17  0.00
  YS02001791YS02001793    1.00   0.00  0.00  0.00  0.00  1.00  0.00  0.00  0.01  0.00
  YS02001793JiankangQianchi    1.00   0.00  0.00  0.00  0.98  0.02  0.00  0.00  0.94  0.00
  YS02001882YS02001884    1.00   0.10  0.00  0.00  0.89  0.00  0.00  0.00  0.00  0.00
  YS02001884YS02001887    1.00   0.05  0.04  0.00  0.91  0.00  0.00  0.00  0.00  0.00
  YS02001887YS02001890    1.00   0.00  0.00  0.00  0.98  0.00  0.02  0.00  0.00  0.00
  YS02001890YS02001895    1.00   0.00  0.10  0.00  0.89  0.00  0.00  0.00  0.00  0.00
  YS02001895YS02001898    1.00   0.11  0.00  0.00  0.88  0.00  0.01  0.00  0.00  0.00
  YS02001898YS02001901    1.00   0.11  0.00  0.00  0.89  0.00  0.00  0.00  0.01  0.00
  YS02001901YS02001904    1.00   0.11  0.00  0.00  0.89  0.00  0.00  0.00  0.00  0.00
  YS02001904YS02001907    1.00   0.00  0.11  0.00  0.89  0.00  0.00  0.00  0.00  0.00
  YS02001907YS02006553    1.00   0.00  0.01  0.00  0.98  0.00  0.00  0.00  0.00  0.00
  YS02001910YS02001907    1.00   0.00  0.00  0.00  0.98  0.00  0.00  0.02  0.12  0.00
  YS02001915YS02001910    1.00   0.00  0.00  0.00  0.98  0.02  0.00  0.00  0.13  0.00
  YS02001918YS02001915    1.00   0.00  0.00  0.00  0.98  0.01  0.00  0.00  0.73  0.00
  YS02001920YS02001918    1.00   0.00  0.00  0.00  1.00  0.00  0.00  0.00  0.00  0.00
  YS02001923YS02001920    1.00   0.00  0.00  0.00  1.00  0.00  0.00  0.00  0.91  0.00
  YS02001926YS02001923    1.00   0.00  0.07  0.00  0.07  0.00  0.86  0.00  0.00  0.00
  YS02001929YS02001926    1.00   0.00  0.10  0.00  0.90  0.00  0.00  0.00  0.81  0.00
  YS02006553YS02006556    1.00   0.01  0.00  0.00  0.99  0.00  0.00  0.00  0.03  0.00
  YS02006556YS02006558    1.00   0.00  0.00  0.00  1.00  0.00  0.00  0.00  0.00  0.00
  YS02006558YS02006561    1.00   0.11  0.00  0.00  0.07  0.82  0.00  0.00  0.18  0.00
  YS02006561YS02001783    1.00   0.11  0.00  0.00  0.10  0.78  0.00  0.00  0.67  0.00
  YS02163301YS02001633    1.00   0.00  0.10  0.00  0.90  0.00  0.00  0.00  0.00  0.00
  YS02163601YS02164001    1.00   0.00  0.07  0.00  0.93  0.00  0.00  0.00  0.00  0.00
  YS02164001YS02001641    1.00   0.00  0.07  0.00  0.93  0.00  0.00  0.00  0.05  0.00
  YSB1154YSB6556          1.00   0.09  0.00  0.00  0.91  0.00  0.00  0.00  0.01  0.00
  YSB1171HS02004479       1.00   0.03  0.00  0.00  0.96  0.00  0.00  0.01  0.10  0.00
  YSB1174YSB1171          1.00   0.04  0.04  0.00  0.92  0.00  0.00  0.00  0.00  0.00
  YSB6556YSB1171          1.00   0.03  0.07  0.00  0.91  0.00  0.00  0.00  0.00  0.00
  
  
  *************************
  Conduit Surcharge Summary
  *************************
  
  ----------------------------------------------------------------------------
                                                           Hours        Hours 
                         --------- Hours Full --------   Above Full   Capacity
  Conduit                Both Ends  Upstream  Dnstream   Normal Flow   Limited
  ----------------------------------------------------------------------------
  HS02004478WS02006287        0.61      0.61      0.79      0.01         0.01
  HS02004479HS02004480        0.80      0.80      0.82      0.01         0.01
  HS02004480HS02004478        0.73      0.80      0.73      1.84         0.73
  HS02004770HS02004777        0.70      0.70      0.70      0.12         0.10
  HS02004777HS02004785        0.64      0.64      0.70      0.01         0.01
  HS02004785HS02004788        0.63      0.64      0.63      1.68         0.58
  HS02004788HS02004792        0.63      0.63      0.76      0.01         0.01
  HS02004792HS02004799        0.76      0.76      0.90      0.01         0.01
  HS02004799HS02004480        0.80      0.80      0.90      1.03         0.01
  HS02004802HS02004478        0.74      0.74      0.81      0.14         0.01
  HS02004807HS02004802        0.79      0.79      0.80      0.31         0.31
  HS02004817HS02004807        0.79      0.79      1.55      0.01         0.01
  HS02004817HS02004824        0.63      0.63      1.55      0.01         0.01
  HS02004824HS02004830        0.60      0.60      0.63      0.01         0.01
  HS02004830HS02004837        0.55      0.55      0.60      0.01         0.01
  HS02004837HS02004842        0.55      0.55      0.71      0.01         0.01
  HS02004842HS02004848        0.53      0.53      0.71      0.01         0.01
  HS02004848HS02004852        0.52      0.53      0.56      0.02         0.01
  HS02004852HS02004856        0.55      0.56      0.58      0.02         0.01
  HS02004856HS02004862        0.54      0.54      0.58      0.01         0.01
  HS02004862HS02004870        0.58      0.58      0.60      0.24         0.21
  HS02004870HS02004876        0.60      0.60      0.69      0.01         0.01
  HS02004876HS02004881        0.67      0.69      0.67      1.70         0.67
  HS02004881HS02006253        0.67      0.67      2.38      0.01         0.01
  HS02004901HS02004770        0.70      0.70      0.71      0.01         0.01
  WS02003072WS02003073        0.01      0.01      0.01      4.12         0.01
  WS02004401WS02004402        1.80      1.80      1.81      1.65         1.63
  WS02004402WS02004403        1.81      1.81      1.81      1.81         1.78
  WS02004403WS02004404        1.81      1.81      1.98      0.01         0.03
  WS02004404WS02004405        1.93      1.98      1.93      4.64         1.93
  WS02004405WS02004406        1.90      1.93      1.90      2.37         1.90
  WS02004406WS02004407        0.01      0.01      1.90      0.01         0.01
  WS02004407WS02004409        0.01      0.01      1.25      0.01         0.01
  WS02004409WS02004410        1.16      1.25      1.16      1.75         1.16
  WS02004410WS02004411        1.03      1.16      1.03      1.78         1.03
  WS02004411WS02004412        0.93      1.03      0.93      1.80         0.93
  WS02004412WS02004413        0.93      0.93      1.59      0.01         0.01
  WS02004413WS02003067        0.01      0.01      1.59      0.01         0.01
  WS02006109WS02006110        2.27      2.27      3.18      2.28         0.01
  WS02006110WS02006113        1.52      1.52      3.02      0.36         0.01
  WS02006111WS02006112        1.51      1.51      4.07      0.01         0.01
  WS02006112WS02006115        1.76      1.76      2.43      0.01         0.01
  WS02006113WS02006111        1.51      1.52      1.51      1.66         1.51
  WS02006115WS02006116        1.77      1.77      1.77      1.75         1.70
  WS02006116WS02004401        1.80      1.80      1.80      1.80         1.77
  WS02006228WS02006109        2.93      3.20      2.93      4.24         2.93
  WS02006229WS02006228        2.90      3.00      2.90      4.04         2.89
  WS02006230WS02006229        3.56      3.93      3.56      4.81         2.34
  WS02006231WS02006230        2.07      2.07      2.34      4.45         1.18
  WS02006232WS02006231        2.30      2.30      2.99      0.03         0.18
  WS02006234WS02006232        2.67      2.67      2.99      0.03         0.06
  WS02006235WS02006234        2.59      2.60      2.71      4.22         1.16
  WS02006238WS02006235        2.74      2.74      2.99      0.01         0.42
  WS02006239WS02006238        2.80      2.92      2.81      2.72         1.02
  WS02006240WS02006239        2.69      2.73      2.70      2.64         0.90
  WS02006242WS02006240        2.70      2.71      3.21      3.20         1.04
  WS02006243WS02006242        2.76      2.76      3.02      0.01         0.02
  WS02006245WS02006243        2.72      2.75      2.73      1.54         0.91
  WS02006247WS02006245        2.72      2.83      2.72      3.98         1.18
  WS02006248WS02006247        2.72      2.72      2.79      0.01         0.03
  WS02006249WS02006248        2.69      2.69      2.75      2.66         0.01
  WS02006251WS02006249        2.74      2.77      2.75      3.40         2.71
  WS02006252WS02006251        3.50      3.50      3.53      3.06         0.01
  WS02006253WS02006251        2.75      2.75      2.83      0.94         0.02
  WS02006256WS02006235        4.47      4.52      7.43      0.76         0.01
  WS02006280WS02006229        0.96      0.96      1.11      0.01         0.01
  WS02006284WS02006280        0.82      0.82      0.93      0.01         0.01
  WS02006287WS02006284        0.72      0.72      0.84      0.36         0.35
  YS02001580YS02001583        0.74      0.74      0.82      0.01         0.01
  YS02001583YS02001586        0.75      0.75      0.94      0.01         0.01
  YS02001586YS02001590        0.95      0.95      1.03      0.01         0.01
  YS02001590YS02001593        1.03      1.03      1.05      1.11         0.01
  YS02001593YS02001596        1.04      1.04      1.15      0.01         0.01
  YS02001596YS02001600        1.20      1.20      1.33      0.01         0.01
  YS02001600YS02001601        1.41      1.41      1.68      0.01         0.01
  YS02001601YS02001602        1.60      1.60      1.71      1.34         0.01
  YS02001602YS02001605        1.56      1.56      1.60      2.35         0.01
  YS02001605YS02001607        1.52      1.56      1.52      1.65         1.52
  YS02001607YS02001610        1.02      1.02      1.05      0.01         0.01
  YS02001610YS02001613        1.01      1.01      1.05      0.01         0.01
  YS02001613YS02001616        0.97      0.97      1.01      0.01         0.01
  YS02001616YS02001619        0.95      0.95      0.97      0.01         0.02
  YS02001619YS02001622        0.95      0.95      0.95      1.01         0.89
  YS02001622YS02001625        0.95      0.95      1.16      0.01         0.01
  YS02001625YS02001629        0.89      0.89      1.16      0.01         0.01
  YS02001629YS02163301        1.16      1.16      1.17      0.02         0.14
  YS02001633YS02163601        1.19      1.19      1.23      0.39         0.37
  YS02001641YS02001644        1.12      1.14      1.12      1.73         1.11
  YS02001644YS02001647        0.89      0.89      1.12      0.03         0.01
  YS02001647YS02001649        0.89      0.89      1.06      0.01         0.01
  YS02001649YS02001757        1.05      1.06      1.14      0.05         0.04
  YS02001652YS02001649        0.84      0.84      1.06      0.01         0.01
  YS02001655YS02001652        0.55      0.55      0.81      0.01         0.01
  YS02001658YS02001655        0.25      0.25      0.55      0.01         0.01
  YS02001661YS02001658        0.02      0.02      0.25      0.01         0.01
  YS02001664YS02001661        0.01      0.01      0.04      0.01         0.01
  YS02001745YS02001748        0.01      0.01      0.17      0.01         0.01
  YS02001748YS02001751        0.22      0.22      0.36      0.01         0.01
  YS02001751YS02001754        0.36      0.36      0.68      0.01         0.01
  YS02001754YS02001757        0.74      0.74      1.14      0.01         0.01
  YS02001757CaochengTiaoxuchi        1.06      1.14      2.15      0.42         0.32
  YS02001759YS02001757        1.03      1.03      1.14      0.01         0.03
  YS02001762YS02001759        0.99      0.99      1.03      0.01         0.02
  YS02001765YS02001762        0.92      0.92      0.99      0.01         0.01
  YS02001767YS02001765        0.88      0.88      0.92      0.01         0.03
  YS02001770YS02001767        0.87      0.87      0.88      0.63         0.58
  YS02001774YS02001770        0.85      0.85      0.96      0.01         0.01
  YS02001779YS02001774        0.66      0.66      0.96      0.01         0.01
  YS02001783YS02001784        0.62      0.64      0.62      0.80         0.62
  YS02001784YS02001785        0.50      0.62      0.50      1.11         0.50
  YS02001786YS02001788        0.01      0.50      0.01      0.92         0.01
  YS02001790YS02001791        0.01      0.01      0.01      0.60         0.01
  YS02001793JiankangQianchi        0.01      0.01      6.42      0.01         0.01
  YS02001882YS02001884        0.58      0.58      0.59      0.01         0.01
  YS02001884YS02001887        0.62      0.62      0.63      0.01         0.01
  YS02001887YS02001890        0.65      0.65      0.66      0.14         0.01
  YS02001890YS02001895        0.57      0.57      0.68      0.01         0.01
  YS02001895YS02001898        0.56      0.56      0.57      0.01         0.01
  YS02001898YS02001901        0.57      0.57      0.62      0.01         0.01
  YS02001901YS02001904        0.61      0.61      0.62      0.01         0.01
  YS02001904YS02001907        0.61      0.61      0.90      0.01         0.01
  YS02001907YS02006553        1.12      1.12      1.21      0.01         0.01
  YS02001910YS02001907        0.68      0.68      0.86      0.01         0.01
  YS02001915YS02001910        0.58      0.58      0.68      0.01         0.01
  YS02001918YS02001915        0.49      0.49      0.58      0.01         0.01
  YS02001920YS02001918        0.49      0.49      0.50      0.01         0.01
  YS02001923YS02001920        0.44      0.44      0.50      0.01         0.01
  YS02001926YS02001923        0.10      0.10      0.14      0.01         0.01
  YS02001929YS02001926        0.01      0.01      0.14      0.01         0.01
  YS02006553YS02006556        0.77      0.77      0.89      0.01         0.01
  YS02006556YS02006558        0.82      0.82      0.92      0.01         0.01
  YS02006558YS02006561        0.52      0.76      0.52      1.05         0.52
  YS02006561YS02001783        0.45      0.45      0.64      0.01         0.01
  YS02163301YS02001633        1.17      1.17      1.21      0.01         0.01
  YS02163601YS02164001        1.15      1.15      1.23      0.04         0.01
  YS02164001YS02001641        1.14      1.15      1.14      0.87         0.84
  YSB1154YSB6556              0.86      0.86      1.06      0.01         0.01
  YSB1171HS02004479           0.75      0.75      1.07      0.01         0.01
  YSB1174YSB1171              0.94      0.94      1.41      0.01         0.01
  YSB6556YSB1171              0.86      0.86      1.62      0.01         0.01
  
  
  ***************
  Pumping Summary
  ***************
  
  ---------------------------------------------------------------------------------------------------------
                                                  Min       Avg       Max     Total     Power    % Time Off
                        Percent   Number of      Flow      Flow      Flow    Volume     Usage    Pump Curve
  Pump                 Utilized   Start-Ups       LPS       LPS       LPS  10^6 ltr     Kw-hr    Low   High
  ---------------------------------------------------------------------------------------------------------
  CC-R1                   21.18           8      0.00    683.00    683.00     4.167     78.98    0.0    5.5
  CC-R2                   16.01           6      0.00    683.00    683.00     3.150     60.27    0.0    7.1
  CC-S1                   50.25          26      0.00    200.00    200.00     2.895     19.37    0.0    0.0
  CC-S2                   47.22          14      0.00    200.00    200.00     2.720     18.23    0.0    0.0
  JK-R1                    7.44          18      0.00   1000.00   1000.00     2.144     23.20    0.0    0.0
  JK-R2                    4.06          16      0.00   1000.00   1000.00     1.168      9.72    0.0    0.0
  JK-S                    16.63          41      0.00    300.00    300.00     1.437     24.62    0.0    0.0
  XR-1                    97.91           2      0.00     95.00     95.00     2.679      9.64    0.0    0.0
  XR-2                    93.95           2      0.00     95.00     95.00     2.571      8.80    0.0    0.0
  XR-3                     0.00           1      0.00     95.00     95.00     0.000      0.00    0.0    0.0
  XR-4                     0.00           1      0.00     95.00     95.00     0.000      0.00    0.0    0.0
  

  Analysis begun on:  Mon Feb 27 13:40:32 2023
  Analysis ended on:  Mon Feb 27 13:40:36 2023
  Total elapsed time: 00:00:04