
  OWA STORM WATER MANAGEMENT MODEL - VERSION v5.1.14 (OWA 2023-01-25)
  --------------------------------------------------------------

  WARNING 04: minimum elevation drop used for Conduit WS02004404WS02004405
  WARNING 03: negative offset ignored for Link YS02001904YS02001907
  
  *********************************************************
  NOTE: The summary statistics displayed in this report are
  based on results found at every computational time step,  
  not just on results from each reporting time step.
  *********************************************************
  
  ****************
  Analysis Options
  ****************
  Flow Units ............... LPS
  Process Models:
    Rainfall/Runoff ........ YES
    RDII ................... NO
    Snowmelt ............... NO
    Groundwater ............ NO
    Flow Routing ........... YES
    Ponding Allowed ........ NO
    Water Quality .......... NO
  Infiltration Method ...... HORTON
  Flow Routing Method ...... DYNWAVE
  Surcharge Method ......... EXTRAN
  Starting Date ............ 08/28/2015 08:00:00
  Ending Date .............. 08/28/2015 16:00:00
  Antecedent Dry Days ...... 8.0
  Report Time Step ......... 00:01:00
  Wet Time Step ............ 00:01:00
  Dry Time Step ............ 00:01:00
  Routing Time Step ........ 30.00 sec
  Variable Time Step ....... YES
  Maximum Trials ........... 8
  Number of Threads ........ 4
  Head Tolerance ........... 0.001500 m
  
  
  **************************        Volume         Depth
  Runoff Quantity Continuity     hectare-m            mm
  **************************     ---------       -------
  Total Precipitation ......         4.001        66.049
  Evaporation Loss .........         0.000         0.000
  Infiltration Loss ........         0.241         3.976
  Surface Runoff ...........         3.700        61.081
  Final Storage ............         0.061         1.007
  Continuity Error (%) .....        -0.021
  
  
  **************************        Volume        Volume
  Flow Routing Continuity        hectare-m      10^6 ltr
  **************************     ---------     ---------
  Dry Weather Inflow .......         0.630         6.296
  Wet Weather Inflow .......         3.700        37.001
  Groundwater Inflow .......         0.000         0.000
  RDII Inflow ..............         0.000         0.000
  External Inflow ..........         0.105         1.045
  External Outflow .........         2.729        27.294
  Flooding Loss ............         1.700        17.002
  Evaporation Loss .........         0.000         0.000
  Exfiltration Loss ........         0.000         0.000
  Initial Stored Volume ....         0.303         3.031
  Final Stored Volume ......         0.322         3.219
  Continuity Error (%) .....        -0.301
  
  
  *************************
  Highest Continuity Errors
  *************************
  Node YS02001583 (-14.53%)
  Node YS02001884 (5.07%)
  Node WS02006256 (-1.79%)
  Node HS02004842 (1.48%)
  
  
  ***************************
  Time-Step Critical Elements
  ***************************
  Link WS02006252WS02006251 (30.28%)
  Link WS02006280WS02006229 (26.34%)
  Link WS02006238WS02006235 (12.68%)
  Link WS02004404WS02004405 (8.25%)
  Link YS02001791YS02001793 (7.29%)
  
  
  ********************************
  Highest Flow Instability Indexes
  ********************************
  Link WS02006113WS02006111 (41)
  Link WS02006111WS02006112 (24)
  Link WS02006238WS02006235 (20)
  Link WS02006229WS02006228 (20)
  Link WS02006252WS02006251 (19)
  
  
  *************************
  Routing Time Step Summary
  *************************
  Minimum Time Step           :     0.00 sec
  Average Time Step           :     1.95 sec
  Maximum Time Step           :     6.46 sec
  Percent in Steady State     :    -0.00
  Average Iterations per Step :     3.35
  Percent Not Converging      :    13.62
  
  
  ***************************
  Subcatchment Runoff Summary
  ***************************
  
  ------------------------------------------------------------------------------------------------------------------------------
                            Total      Total      Total      Total     Imperv       Perv      Total       Total     Peak  Runoff
                           Precip      Runon       Evap      Infil     Runoff     Runoff     Runoff      Runoff   Runoff   Coeff
  Subcatchment                 mm         mm         mm         mm         mm         mm         mm    10^6 ltr      LPS
  ------------------------------------------------------------------------------------------------------------------------------
  sub0                      66.05       0.00       0.00       1.02      60.18       3.61      63.78        0.05    31.91   0.966
  sub1                      66.05       0.00       0.00       1.73      57.54       5.54      63.07        0.42   211.62   0.955
  sub10                     66.05       0.00       0.00       1.22      59.48       4.06      63.55        0.70   362.21   0.962
  sub11                     66.05       0.00       0.00       1.21      59.50       4.08      63.58        0.74   404.30   0.963
  sub12                     66.05       0.00       0.00       1.96      56.29       6.63      62.92        0.55   324.17   0.953
  sub14                     66.05       0.00       0.00       1.38      58.85       4.57      63.42        0.60   320.80   0.960
  sub15                     66.05       0.00       0.00       5.30      45.26      14.52      59.78        1.03   479.35   0.905
  sub16                     66.05       0.00       0.00       5.51      43.35      16.29      59.63        0.62   320.86   0.903
  sub17                     66.05       0.00       0.00       5.37      43.99      15.77      59.76        0.51   260.81   0.905
  sub2                      66.05       0.00       0.00       7.49      40.71      16.95      57.66        0.54   209.28   0.873
  sub22                     66.05       0.00       0.00       7.99      36.87      20.41      57.28        3.62  1564.98   0.867
  sub23                     66.05       0.00       0.00       6.55      40.75      17.90      58.65        2.80  1307.58   0.888
  sub3                      66.05       0.00       0.00       8.11      40.67      16.33      57.00        1.28   452.69   0.863
  sub4                      66.05       0.00       0.00       1.91      57.37       5.36      62.73        1.31   506.88   0.950
  sub5                      66.05       0.00       0.00       1.07      60.12       3.56      63.68        0.72   366.41   0.964
  sub60                     66.05       0.00       0.00       1.84      56.92       6.08      63.00        0.83   456.80   0.954
  sub61                     66.05       0.00       0.00       2.67      53.69       8.56      62.25        1.14   629.34   0.943
  sub62                     66.05       0.00       0.00       1.23      59.48       4.06      63.54        1.74   887.62   0.962
  sub63                     66.05       0.00       0.00       4.89      45.92      14.27      60.20        1.37   686.43   0.911
  sub64                     66.05       0.00       0.00       2.48      54.93       7.43      62.37        1.50   712.26   0.944
  sub65                     66.05       0.00       0.00       2.14      56.21       6.45      62.66        1.72   797.05   0.949
  sub66                     66.05       0.00       0.00       5.95      45.82      13.20      59.02        2.75  1021.72   0.894
  sub67                     66.05       0.00       0.00       1.19      59.52       4.10      63.62        1.18   691.29   0.963
  sub68                     66.05       0.00       0.00       2.21      55.62       7.04      62.66        1.72   904.46   0.949
  sub69                     66.05       0.00       0.00       1.96      56.03       7.95      63.98        2.37  1069.65   0.969
  sub7                      66.05       0.00       0.00       1.36      58.86       4.59      63.45        0.21   119.80   0.961
  sub70                     66.05       0.00       0.00       6.39      43.43      16.07      59.50        1.72   579.43   0.901
  sub71                     66.05       0.00       0.00       1.26      59.44       4.03      63.46        1.66   776.11   0.961
  sub72                     66.05       0.00       0.00       1.12      60.02       3.51      63.53        0.87   372.86   0.962
  sub8                      66.05       0.00       0.00       1.37      58.85       4.58      63.43        0.41   218.82   0.960
  sub9                      66.05       0.00       0.00       1.37      58.85       4.57      63.42        0.31   163.28   0.960
  
  
  ******************
  Node Depth Summary
  ******************
  
  ---------------------------------------------------------------------------------
                                 Average  Maximum  Maximum  Time of Max    Reported
                                   Depth    Depth      HGL   Occurrence   Max Depth
  Node                 Type       Meters   Meters   Meters  days hr:min      Meters
  ---------------------------------------------------------------------------------
  HS02004478           JUNCTION     0.21     1.59    10.82     0  01:38        1.58
  HS02004479           JUNCTION     0.29     1.69    10.89     0  01:38        1.69
  HS02004480           JUNCTION     0.25     1.66    10.90     0  01:37        1.64
  HS02004770           JUNCTION     0.26     1.42    11.25     0  01:34        1.42
  HS02004777           JUNCTION     0.28     1.48    11.28     0  01:34        1.48
  HS02004785           JUNCTION     0.18     1.49    11.39     0  01:34        1.49
  HS02004788           JUNCTION     0.15     1.42    11.32     0  01:34        1.42
  HS02004792           JUNCTION     0.20     1.60    11.12     0  01:34        1.60
  HS02004799           JUNCTION     0.31     1.76    10.97     0  01:35        1.76
  HS02004802           JUNCTION     0.31     1.80    10.93     0  01:38        1.79
  HS02004807           JUNCTION     0.28     1.92    11.09     0  01:35        1.91
  HS02004817           JUNCTION     0.58     2.44    11.29     0  01:35        2.33
  HS02004824           JUNCTION     0.16     2.01    11.41     0  01:35        1.87
  HS02004830           JUNCTION     0.16     2.03    11.50     0  01:35        1.82
  HS02004837           JUNCTION     0.13     2.04    11.62     0  01:35        1.75
  HS02004842           JUNCTION     0.42     2.22    11.49     0  01:37        2.07
  HS02004848           JUNCTION     0.11     1.98    11.58     0  01:37        1.76
  HS02004852           JUNCTION     0.12     2.04    11.55     0  01:37        1.81
  HS02004856           JUNCTION     0.18     2.07    11.49     0  01:37        1.94
  HS02004862           JUNCTION     0.13     2.00    11.38     0  01:37        1.93
  HS02004870           JUNCTION     0.13     2.10    11.39     0  01:37        1.82
  HS02004876           JUNCTION     0.17     2.26    11.29     0  01:37        1.89
  HS02004881           JUNCTION     0.12     2.15    11.18     0  01:37        1.63
  HS02004901           JUNCTION     0.26     1.42    11.24     0  01:34        1.42
  WS02001211           JUNCTION     0.63     0.85     5.68     0  01:39        0.84
  WS02001212           JUNCTION     0.37     0.61     5.68     0  01:39        0.60
  WS02001213           JUNCTION     0.60     0.92     5.68     0  01:38        0.88
  WS02003059           JUNCTION     0.66     0.97     5.66     0  01:41        0.96
  WS02003060           JUNCTION     0.40     0.70     5.63     0  01:41        0.69
  WS02003066           JUNCTION     0.25     0.45     6.01     0  01:40        0.45
  WS02003067           JUNCTION     0.58     0.90     6.22     0  01:33        0.89
  WS02003069           JUNCTION     0.45     0.78     5.37     0  01:42        0.78
  WS02003072           JUNCTION     0.50     0.82     5.19     0  01:43        0.81
  WS02003073           JUNCTION     0.30     0.52     4.58     0  01:44        0.52
  WS02004138           JUNCTION     0.13     0.14     7.39     0  00:32        0.14
  WS02004139           JUNCTION     0.57     0.76     5.67     0  01:40        0.75
  WS02004401           JUNCTION     0.81     1.84     7.84     0  01:31        1.83
  WS02004402           JUNCTION     0.82     1.89     7.85     0  01:31        1.78
  WS02004403           JUNCTION     0.83     1.87     7.80     0  01:31        1.70
  WS02004404           JUNCTION     0.89     1.88     7.73     0  01:31        1.71
  WS02004405           JUNCTION     0.88     1.80     7.65     0  01:31        1.67
  WS02004406           JUNCTION     0.86     1.78     7.61     0  01:31        1.56
  WS02004407           JUNCTION     0.28     0.91     7.22     0  01:39        0.91
  WS02004409           JUNCTION     0.58     1.38     7.15     0  01:38        1.37
  WS02004410           JUNCTION     0.58     1.29     7.01     0  01:39        1.28
  WS02004411           JUNCTION     0.59     1.20     6.88     0  01:39        1.19
  WS02004412           JUNCTION     0.58     1.10     6.74     0  01:38        1.10
  WS02004413           JUNCTION     0.72     1.55     7.02     0  01:33        1.14
  WS02006109           JUNCTION     1.04     2.64     9.26     0  01:31        2.64
  WS02006110           JUNCTION     0.98     2.76     9.34     0  01:31        2.38
  WS02006111           JUNCTION     0.44     2.50     9.20     0  01:31        1.72
  WS02006112           JUNCTION     1.03     2.68     8.56     0  01:31        2.35
  WS02006113           JUNCTION     0.54     2.57     9.47     0  01:31        1.81
  WS02006115           JUNCTION     0.74     2.13     8.27     0  01:31        1.93
  WS02006116           JUNCTION     0.80     2.01     8.05     0  01:31        1.93
  WS02006228           JUNCTION     1.10     3.03     9.68     0  01:38        3.02
  WS02006229           JUNCTION     1.11     3.22     9.92     0  01:37        3.21
  WS02006230           JUNCTION     1.06     2.65     9.39     0  01:29        2.65
  WS02006231           JUNCTION     0.78     2.24     9.36     0  01:29        2.20
  WS02006232           JUNCTION     0.89     2.18     9.22     0  01:29        2.18
  WS02006234           JUNCTION     0.79     1.96     9.12     0  01:29        1.96
  WS02006235           JUNCTION     0.80     2.00     9.16     0  01:29        1.95
  WS02006238           JUNCTION     0.83     2.04     9.18     0  01:29        1.95
  WS02006239           JUNCTION     0.78     2.03     9.24     0  01:29        1.81
  WS02006240           JUNCTION     0.72     2.10     9.39     0  01:29        1.65
  WS02006242           JUNCTION     0.77     1.55     8.82     0  01:29        1.55
  WS02006243           JUNCTION     0.66     1.48     8.90     0  01:29        1.38
  WS02006245           JUNCTION     0.64     1.56     9.05     0  01:29        1.28
  WS02006247           JUNCTION     0.65     1.47     8.97     0  01:29        1.24
  WS02006248           JUNCTION     0.60     1.10     8.69     0  01:30        1.10
  WS02006249           JUNCTION     0.62     1.09     8.69     0  01:30        1.09
  WS02006251           JUNCTION     0.73     2.21     9.88     0  01:37        2.10
  WS02006252           JUNCTION     0.51     1.50     9.74     0  00:00        1.50
  WS02006253           JUNCTION     0.79     3.29    10.93     0  01:37        2.90
  WS02006256           JUNCTION     1.11     2.35     9.28     0  00:00        2.35
  WS02006280           JUNCTION     0.28     1.74    10.01     0  01:37        1.73
  WS02006284           JUNCTION     0.53     1.95    10.35     0  01:37        1.94
  WS02006287           JUNCTION     0.27     1.74    10.69     0  01:38        1.72
  WSF200               JUNCTION     0.25     0.53     5.76     0  01:40        0.52
  YS02001580           JUNCTION     0.08     1.05     9.59     0  01:35        0.77
  YS02001583           JUNCTION     0.12     1.14     9.64     0  01:35        0.82
  YS02001586           JUNCTION     0.19     1.13     9.30     0  01:34        1.13
  YS02001590           JUNCTION     0.28     1.40     9.26     0  01:35        1.40
  YS02001593           JUNCTION     0.22     1.34     9.21     0  01:35        1.29
  YS02001596           JUNCTION     0.29     1.69     9.11     0  01:35        1.65
  YS02001600           JUNCTION     0.36     1.87     9.00     0  01:35        1.86
  YS02001601           JUNCTION     0.54     2.06     8.90     0  01:34        2.06
  YS02001602           JUNCTION     0.46     1.87     8.77     0  01:35        1.87
  YS02001605           JUNCTION     0.42     1.78     8.68     0  01:35        1.77
  YS02001607           JUNCTION     0.42     1.68     8.53     0  01:50        1.68
  YS02001610           JUNCTION     0.46     1.68     8.48     0  01:35        1.68
  YS02001613           JUNCTION     0.42     1.68     8.52     0  01:35        1.67
  YS02001616           JUNCTION     0.35     1.61     8.52     0  01:35        1.61
  YS02001619           JUNCTION     0.33     1.61     8.54     0  01:35        1.61
  YS02001622           JUNCTION     0.32     1.62     8.52     0  01:35        1.58
  YS02001625           JUNCTION     0.58     1.78     8.38     0  01:35        1.78
  YS02001629           JUNCTION     0.44     1.85     8.40     0  01:35        1.85
  YS02001633           JUNCTION     0.51     2.05     8.50     0  01:38        2.05
  YS02001641           JUNCTION     0.50     1.96     8.40     0  01:37        1.93
  YS02001644           JUNCTION     0.49     1.92     8.35     0  01:37        1.92
  YS02001647           JUNCTION     0.29     1.79     8.40     0  01:38        1.71
  YS02001649           JUNCTION     0.34     2.05     8.44     0  01:38        1.93
  YS02001652           JUNCTION     0.24     1.92     8.52     0  01:38        1.74
  YS02001655           JUNCTION     0.18     2.01     8.86     0  02:07        1.57
  YS02001658           JUNCTION     0.13     1.80     8.94     0  01:38        1.36
  YS02001661           JUNCTION     0.14     1.55     8.95     0  01:38        1.19
  YS02001664           JUNCTION     0.05     0.74     8.66     0  01:38        0.73
  YS02001745           JUNCTION     0.06     1.62     9.14     0  01:38        0.67
  YS02001748           JUNCTION     0.12     1.98     9.05     0  01:38        1.23
  YS02001751           JUNCTION     0.15     2.20     9.08     0  01:38        2.20
  YS02001754           JUNCTION     0.21     2.20     8.81     0  01:38        2.20
  YS02001757           JUNCTION     0.36     2.21     8.47     0  01:38        2.21
  YS02001759           JUNCTION     0.31     2.21     8.57     0  01:38        2.21
  YS02001762           JUNCTION     0.30     2.15     8.55     0  01:38        2.15
  YS02001765           JUNCTION     0.28     2.10     8.55     0  01:38        2.10
  YS02001767           JUNCTION     0.28     2.03     8.52     0  01:38        2.03
  YS02001770           JUNCTION     0.29     1.95     8.45     0  01:38        1.95
  YS02001774           JUNCTION     0.35     2.01     8.43     0  01:38        1.95
  YS02001779           JUNCTION     0.19     1.68     8.37     0  01:37        1.68
  YS02001783           JUNCTION     0.22     1.53     7.67     0  01:36        1.23
  YS02001784           JUNCTION     0.24     1.29     7.36     0  01:36        1.11
  YS02001786           JUNCTION     0.20     1.00     7.03     0  01:36        0.87
  YS02001788           JUNCTION     0.14     0.62     6.60     0  01:42        0.62
  YS02001790           JUNCTION     0.17     0.72     6.37     0  01:43        0.72
  YS02001791           JUNCTION     0.11     0.44     5.91     0  01:42        0.44
  YS02001793           JUNCTION     0.06     0.29     5.12     0  01:39        0.29
  YS02001882           JUNCTION     0.29     1.77     8.49     0  01:36        1.64
  YS02001884           JUNCTION     0.37     1.85     8.47     0  01:36        1.73
  YS02001887           JUNCTION     0.45     1.88     8.42     0  01:36        1.82
  YS02001890           JUNCTION     0.48     1.81     8.32     0  01:35        1.81
  YS02001895           JUNCTION     0.26     1.72     8.46     0  01:36        1.72
  YS02001898           JUNCTION     0.26     1.77     8.51     0  01:36        1.77
  YS02001901           JUNCTION     0.37     1.87     8.48     0  01:36        1.87
  YS02001904           JUNCTION     0.35     1.73     8.36     0  01:36        1.73
  YS02001907           JUNCTION     0.66     1.96     8.25     0  01:36        1.96
  YS02001910           JUNCTION     0.47     1.99     8.50     0  01:37        1.84
  YS02001915           JUNCTION     0.29     1.93     8.65     0  01:37        1.74
  YS02001918           JUNCTION     0.15     1.81     8.88     0  01:37        1.39
  YS02001920           JUNCTION     0.23     2.14     9.15     0  01:37        1.45
  YS02001923           JUNCTION     0.11     2.03     9.29     0  01:37        1.21
  YS02001926           JUNCTION     0.15     1.90     9.35     0  01:37        1.49
  YS02001929           JUNCTION     0.08     1.78     9.47     0  01:37        0.80
  YS02006553           JUNCTION     0.67     2.04     8.32     0  01:36        2.00
  YS02006556           JUNCTION     0.64     2.09     8.40     0  01:36        2.09
  YS02006558           JUNCTION     0.68     2.15     8.42     0  01:36        2.11
  YS02006561           JUNCTION     0.14     1.27     7.93     0  01:36        0.89
  YS02163301           JUNCTION     0.46     1.95     8.47     0  01:38        1.95
  YS02163601           JUNCTION     0.55     2.05     8.45     0  01:37        2.01
  YS02164001           JUNCTION     0.48     1.97     8.43     0  01:37        1.92
  YSB1154              JUNCTION     0.42     1.96    11.02     0  01:38        1.96
  YSB1171              JUNCTION     0.56     1.95    10.85     0  01:35        1.95
  YSB1174              JUNCTION     0.37     1.83    10.94     0  01:38        1.83
  YSB6556              JUNCTION     0.32     1.76    10.92     0  01:35        1.75
  CC-1                 OUTFALL      0.00     0.00     0.00     0  00:00        0.00
  CC-2                 OUTFALL      0.00     0.00     0.00     0  00:00        0.00
  JK-1                 OUTFALL      0.00     0.00     0.00     0  00:00        0.00
  JK-2                 OUTFALL      0.00     0.00     0.00     0  00:00        0.00
  WSC                  OUTFALL      0.30     0.52     1.19     0  01:44        0.52
  CC-storage           STORAGE      0.85     1.66     7.16     0  02:16        1.66
  JK-storage           STORAGE      1.40     4.22     5.02     0  01:40        4.19
  XR-storage           STORAGE      7.90     9.26     7.26     0  08:00        9.26
  
  
  *******************
  Node Inflow Summary
  *******************
  
  -------------------------------------------------------------------------------------------------
                                  Maximum  Maximum                  Lateral       Total        Flow
                                  Lateral    Total  Time of Max      Inflow      Inflow     Balance
                                   Inflow   Inflow   Occurrence      Volume      Volume       Error
  Node                 Type           LPS      LPS  days hr:min    10^6 ltr    10^6 ltr     Percent
  -------------------------------------------------------------------------------------------------
  HS02004478           JUNCTION      0.00  2293.84     0  01:39           0        9.54      -0.010
  HS02004479           JUNCTION      0.00   542.04     0  01:36           0       0.909       0.105
  HS02004480           JUNCTION      0.00  2188.80     0  01:35           0        7.21       0.031
  HS02004770           JUNCTION   1307.58  1307.58     0  01:40         2.8        3.07       0.089
  HS02004777           JUNCTION      0.03   835.98     0  01:34    0.000864        2.14       0.244
  HS02004785           JUNCTION      0.15   869.51     0  01:34     0.00432        2.13       0.029
  HS02004788           JUNCTION    481.02   808.21     0  02:03        1.08        3.21      -0.008
  HS02004792           JUNCTION   1565.26  2335.62     0  01:40        3.63        6.83       0.009
  HS02004799           JUNCTION    320.80  1768.61     0  01:35       0.604        6.42       0.048
  HS02004802           JUNCTION      0.00  1122.36     0  01:40           0         2.4       0.164
  HS02004807           JUNCTION    404.30  1122.27     0  01:40       0.739        2.44       0.161
  HS02004817           JUNCTION      0.60   735.78     0  01:41      0.0173        1.76       0.957
  HS02004824           JUNCTION    506.93   765.59     0  01:35        1.31        1.99       0.028
  HS02004830           JUNCTION      0.15   763.44     0  01:35     0.00432       0.926       0.116
  HS02004837           JUNCTION    368.56   999.40     0  01:35       0.884        1.35       0.025
  HS02004842           JUNCTION      0.00  1037.60     0  01:35           0       0.891       1.501
  HS02004848           JUNCTION    452.69  1288.81     0  01:35        1.28        1.99      -0.002
  HS02004852           JUNCTION      0.00  1204.04     0  01:36           0        1.83       0.004
  HS02004856           JUNCTION    163.28  1340.05     0  01:36       0.305        2.13       0.077
  HS02004862           JUNCTION    209.48  1504.78     0  01:36       0.543        2.67      -0.007
  HS02004870           JUNCTION    218.82  1650.46     0  01:36       0.405        3.08       0.001
  HS02004876           JUNCTION    211.62  1671.84     0  01:37       0.419        3.49      -0.008
  HS02004881           JUNCTION    119.80  1786.60     0  01:37       0.214        3.71      -0.028
  HS02004901           JUNCTION    320.86   546.69     0  01:41       0.624       0.963       0.181
  WS02001211           JUNCTION      7.35   302.26     0  01:37       0.212        5.44       0.610
  WS02001212           JUNCTION      0.00   313.38     0  01:35           0        5.42       0.289
  WS02001213           JUNCTION      0.00   293.40     0  01:40           0        5.41       0.330
  WS02003059           JUNCTION      0.00   328.49     0  01:34           0        5.41       0.593
  WS02003060           JUNCTION     16.53  1561.51     0  01:41       0.476          17       0.088
  WS02003066           JUNCTION      0.00  1297.28     0  01:40           0        11.1       0.015
  WS02003067           JUNCTION      0.00  1291.44     0  01:39           0        11.1       0.040
  WS02003069           JUNCTION      0.32  1523.53     0  01:42     0.00922          17       0.094
  WS02003072           JUNCTION      0.00  1515.46     0  01:42           0        16.9       0.125
  WS02003073           JUNCTION      1.82  1514.98     0  01:43      0.0524          17       0.130
  WS02004138           JUNCTION      0.00   380.00     0  00:00           0        5.25       0.052
  WS02004139           JUNCTION      0.32   236.42     0  01:36     0.00924        5.26       0.509
  WS02004401           JUNCTION      0.00  1292.84     0  01:39           0        11.3       0.097
  WS02004402           JUNCTION      0.00  1293.21     0  01:39           0        11.2       0.097
  WS02004403           JUNCTION      0.00  1292.73     0  01:39           0        11.2       0.094
  WS02004404           JUNCTION      0.16  1292.92     0  01:39     0.00467        11.2       0.081
  WS02004405           JUNCTION      0.04  1293.56     0  01:39      0.0011        11.2       0.113
  WS02004406           JUNCTION      0.00  1294.24     0  01:39           0        11.2       0.195
  WS02004407           JUNCTION      0.00  1294.52     0  01:39           0        11.2       0.015
  WS02004409           JUNCTION      0.00  1291.36     0  01:40           0        11.2       0.029
  WS02004410           JUNCTION      0.00  1291.54     0  01:40           0        11.2       0.047
  WS02004411           JUNCTION      0.00  1291.82     0  01:39           0        11.2       0.056
  WS02004412           JUNCTION      0.00  1291.26     0  01:40           0        11.2       0.074
  WS02004413           JUNCTION      0.00  1291.28     0  01:39           0        11.2       0.126
  WS02006109           JUNCTION      1.23  1283.75     0  01:39      0.0354          11       0.077
  WS02006110           JUNCTION      0.00  1158.06     0  01:31           0        10.8       0.072
  WS02006111           JUNCTION      0.00  1127.64     0  01:31           0        10.8      -0.006
  WS02006112           JUNCTION    260.81  1291.06     0  01:39       0.513        11.3       0.184
  WS02006113           JUNCTION      0.00  1158.12     0  01:31           0        10.8       0.027
  WS02006115           JUNCTION      0.00  1291.53     0  01:39           0        11.3       0.071
  WS02006116           JUNCTION      0.00  1292.40     0  01:39           0        11.3       0.015
  WS02006228           JUNCTION      0.00  1282.52     0  01:39           0          11       0.027
  WS02006229           JUNCTION      0.00  2293.91     0  01:39           0        13.7       0.056
  WS02006230           JUNCTION     10.28  1020.92     0  01:38       0.296        6.83       0.119
  WS02006231           JUNCTION      0.00   562.54     0  04:10           0        5.49      -0.065
  WS02006232           JUNCTION      0.00   562.32     0  04:10           0        5.47       0.104
  WS02006234           JUNCTION      0.00   559.29     0  04:10           0        5.43      -0.171
  WS02006235           JUNCTION      0.00   552.55     0  04:10           0         5.4       0.132
  WS02006238           JUNCTION      0.00   427.82     0  04:01           0        5.07      -0.146
  WS02006239           JUNCTION      0.00   428.34     0  04:01           0        5.03      -0.166
  WS02006240           JUNCTION      0.00   426.93     0  04:00           0        5.01      -0.011
  WS02006242           JUNCTION      0.00   429.50     0  04:00           0           5       0.011
  WS02006243           JUNCTION      0.00   430.84     0  04:00           0        4.57      -0.229
  WS02006245           JUNCTION      0.00   431.70     0  04:00           0        4.58       0.242
  WS02006247           JUNCTION      0.00   431.23     0  04:00           0        4.58       0.021
  WS02006248           JUNCTION      0.00   430.95     0  04:00           0        4.87      -0.032
  WS02006249           JUNCTION      0.00  1349.80     0  01:37           0        8.84       0.078
  WS02006251           JUNCTION      0.08  1612.53     0  01:37     0.00222        8.98       0.001
  WS02006252           JUNCTION      0.00   591.41     0  01:38           0        5.65      -0.208
  WS02006253           JUNCTION     31.91  1609.57     0  01:37      0.0517        3.83       0.002
  WS02006256           JUNCTION      0.00   300.00     0  00:00           0        1.08      -1.760
  WS02006280           JUNCTION      0.00  2293.05     0  01:39           0        9.53       0.009
  WS02006284           JUNCTION      0.10  2292.98     0  01:39     0.00275        9.53       0.012
  WS02006287           JUNCTION      0.00  2293.66     0  01:39           0        9.53       0.009
  WSF200               JUNCTION      0.00  1295.65     0  01:38           0        11.1       0.007
  YS02001580           JUNCTION      0.00   168.46     0  01:35           0     0.00458       3.736
  YS02001583           JUNCTION      0.00   274.42     0  01:35           0      0.0145     -12.684
  YS02001586           JUNCTION    579.43   579.43     0  01:43        1.72        1.73       0.100
  YS02001590           JUNCTION      0.00   318.04     0  01:57           0        1.45      -0.016
  YS02001593           JUNCTION      0.00   318.13     0  01:40           0        1.45       0.005
  YS02001596           JUNCTION      0.00   318.09     0  01:39           0        1.45      -0.008
  YS02001600           JUNCTION      0.00   318.03     0  01:40           0        1.45       0.005
  YS02001601           JUNCTION   1069.65  1387.29     0  01:41        2.37        3.81       0.025
  YS02001602           JUNCTION      0.00   576.60     0  01:34           0        2.46       0.019
  YS02001605           JUNCTION      0.00   576.54     0  01:34           0        2.33       0.016
  YS02001607           JUNCTION      0.00   576.14     0  01:34           0        2.33       0.083
  YS02001610           JUNCTION      0.00   539.23     0  01:34           0        2.42       0.104
  YS02001613           JUNCTION      0.00   516.86     0  01:35           0        1.93       0.086
  YS02001616           JUNCTION      0.00   507.78     0  01:35           0        1.94       0.018
  YS02001619           JUNCTION   1021.72  1021.72     0  01:43        2.75        4.59      -0.003
  YS02001622           JUNCTION      0.00   932.64     0  01:35           0         4.5      -0.013
  YS02001625           JUNCTION      0.00  1134.02     0  01:43           0        4.61       0.194
  YS02001629           JUNCTION      0.00   926.97     0  01:35           0        3.69       0.003
  YS02001633           JUNCTION    797.25  1428.84     0  01:36        1.73        5.27       0.062
  YS02001641           JUNCTION      0.00  1428.49     0  01:36           0        5.14       0.050
  YS02001644           JUNCTION    712.30  1941.50     0  01:36         1.5        6.63       0.047
  YS02001647           JUNCTION      0.00  1942.74     0  01:36           0        6.49       0.006
  YS02001649           JUNCTION      0.00  2201.19     0  01:37           0        7.87       0.006
  YS02001652           JUNCTION      0.00   891.51     0  01:39           0        1.37      -0.087
  YS02001655           JUNCTION      0.15   890.15     0  01:39     0.00443        1.37      -0.133
  YS02001658           JUNCTION      0.00   888.10     0  01:39           0        1.37      -0.101
  YS02001661           JUNCTION      0.00   857.54     0  01:39           0        1.37       0.021
  YS02001664           JUNCTION    686.43   686.43     0  01:40        1.37        1.37      -0.011
  YS02001745           JUNCTION    456.81   706.17     0  01:38       0.828        0.83       0.214
  YS02001748           JUNCTION      0.04   717.40     0  01:37      0.0013       0.833      -0.518
  YS02001751           JUNCTION      0.01   640.48     0  01:38    0.000317       0.843       0.137
  YS02001754           JUNCTION      0.26   643.70     0  01:38     0.00749       0.855      -0.282
  YS02001757           JUNCTION      0.00  3512.26     0  01:38           0        11.6       0.041
  YS02001759           JUNCTION    629.38  1469.05     0  01:38        1.14        2.86      -0.006
  YS02001762           JUNCTION      0.00   852.55     0  01:38           0        1.72      -0.006
  YS02001765           JUNCTION      0.00   855.62     0  01:38           0        1.72       0.018
  YS02001767           JUNCTION      0.54   855.85     0  01:38      0.0154        1.72      -0.003
  YS02001770           JUNCTION    887.78   887.78     0  01:40        1.75        1.79      -0.004
  YS02001774           JUNCTION      0.00   570.48     0  01:37           0        0.11       0.997
  YS02001779           JUNCTION      0.01   580.20     0  01:37    0.000144      0.0635      -1.090
  YS02001783           JUNCTION      0.00  1161.19     0  01:38           0        4.41       0.004
  YS02001784           JUNCTION      1.06  1162.17     0  01:37      0.0305        4.44       0.012
  YS02001786           JUNCTION      0.06  1162.41     0  01:38     0.00162        4.44       0.012
  YS02001788           JUNCTION      0.07  1162.51     0  01:38     0.00204        4.45       0.007
  YS02001790           JUNCTION      0.15  1174.63     0  01:39     0.00446        4.45       0.024
  YS02001791           JUNCTION      0.00  1287.69     0  01:43           0        4.45      -0.030
  YS02001793           JUNCTION      0.00  1253.97     0  01:39           0        4.45       0.006
  YS02001882           JUNCTION      0.00   103.60     0  01:35           0      0.0132       5.995
  YS02001884           JUNCTION      0.00   144.67     0  01:35           0      0.0491       5.342
  YS02001887           JUNCTION    691.74   692.20     0  01:38         1.2        1.23       0.375
  YS02001890           JUNCTION      0.00   692.51     0  01:39           0        1.19       0.431
  YS02001895           JUNCTION      0.00   601.49     0  01:36           0        1.13       0.140
  YS02001898           JUNCTION      0.00   605.38     0  01:36           0        1.13       0.001
  YS02001901           JUNCTION      0.00   607.51     0  01:36           0        1.14       0.289
  YS02001904           JUNCTION      0.00   607.56     0  01:36           0        1.14       0.243
  YS02001907           JUNCTION      0.00  1698.75     0  01:41           0        3.75       0.482
  YS02001910           JUNCTION      0.00  1180.67     0  01:41           0        2.62       0.279
  YS02001915           JUNCTION    776.13  1179.82     0  01:41        1.66        2.67       0.062
  YS02001918           JUNCTION      0.00   726.33     0  01:36           0        1.04       0.014
  YS02001920           JUNCTION      2.87   707.14     0  01:36      0.0827        1.02       0.042
  YS02001923           JUNCTION      0.04   967.07     0  01:36     0.00109       0.917      -0.100
  YS02001926           JUNCTION      0.05  1196.94     0  01:36      0.0015       0.897      -0.255
  YS02001929           JUNCTION    372.86  1110.84     0  01:37       0.874        0.88      -0.407
  YS02006553           JUNCTION      0.00   791.52     0  02:00           0        2.72       0.434
  YS02006556           JUNCTION      0.00   791.01     0  02:00           0        2.73       0.287
  YS02006558           JUNCTION    905.34  1195.98     0  01:36        1.75        4.45       0.088
  YS02006561           JUNCTION      0.00  1206.18     0  01:36           0        4.41      -0.005
  YS02163301           JUNCTION      0.00   886.89     0  01:36           0        3.68       0.037
  YS02163601           JUNCTION      0.11  1428.45     0  01:36     0.00317        5.14       0.092
  YS02164001           JUNCTION      0.00  1428.71     0  01:36           0        5.14       0.043
  YSB1154              JUNCTION    366.41   366.41     0  01:40       0.721       0.722       0.199
  YSB1171              JUNCTION      0.00   813.92     0  01:40           0        1.33       0.486
  YSB1174              JUNCTION    324.17   324.17     0  01:38        0.55        0.55       0.233
  YSB6556              JUNCTION      0.00   366.50     0  01:40           0       0.723       0.175
  CC-1                 OUTFALL       0.00   683.00     0  00:00           0        3.95       0.000
  CC-2                 OUTFALL       0.00   683.00     0  00:00           0        2.91       0.000
  JK-1                 OUTFALL       0.00  1000.00     0  00:00           0        1.95       0.000
  JK-2                 OUTFALL       0.00  1000.00     0  00:00           0        1.54       0.000
  WSC                  OUTFALL       0.00  1514.08     0  01:44           0        16.9       0.000
  CC-storage           STORAGE       0.00  3512.47     0  01:38           0        13.8      -0.229
  JK-storage           STORAGE       0.00  1231.82     0  01:54           0         4.6      -0.359
  XR-storage           STORAGE     200.00   200.00     0  00:00        5.76        6.36       0.001
  
  
  **********************
  Node Surcharge Summary
  **********************
  
  Surcharging occurs when water rises above the top of the highest conduit.
  ---------------------------------------------------------------------
                                               Max. Height   Min. Depth
                                   Hours       Above Crown    Below Rim
  Node                 Type      Surcharged         Meters       Meters
  ---------------------------------------------------------------------
  HS02004478           JUNCTION        0.55          0.668        0.272
  HS02004479           JUNCTION        0.70          0.887        0.163
  HS02004480           JUNCTION        0.74          0.950        0.150
  HS02004770           JUNCTION        0.64          0.720        0.000
  HS02004777           JUNCTION        0.65          0.780        0.000
  HS02004785           JUNCTION        0.59          0.790        0.000
  HS02004788           JUNCTION        0.57          0.720        0.000
  HS02004792           JUNCTION        0.71          0.900        0.000
  HS02004799           JUNCTION        0.84          1.060        0.000
  HS02004802           JUNCTION        0.75          1.094        0.116
  HS02004807           JUNCTION        0.73          1.220        0.000
  HS02004817           JUNCTION        1.49          1.740        0.000
  HS02004824           JUNCTION        0.58          1.310        0.000
  HS02004830           JUNCTION        0.54          1.330        0.000
  HS02004837           JUNCTION        0.49          1.340        0.000
  HS02004842           JUNCTION        0.65          1.520        0.000
  HS02004848           JUNCTION        0.47          1.277        0.093
  HS02004852           JUNCTION        0.50          1.336        0.084
  HS02004856           JUNCTION        0.48          1.296        0.004
  HS02004862           JUNCTION        0.52          1.300        0.000
  HS02004870           JUNCTION        0.55          1.400        0.000
  HS02004876           JUNCTION        0.63          1.560        0.000
  HS02004881           JUNCTION        0.61          1.450        0.000
  HS02004901           JUNCTION        0.65          0.720        0.000
  WS02004401           JUNCTION        1.78          0.839        0.821
  WS02004402           JUNCTION        1.81          0.886        0.854
  WS02004403           JUNCTION        1.81          0.866        1.164
  WS02004404           JUNCTION        1.99          0.875        1.905
  WS02004405           JUNCTION        1.95          0.796        2.004
  WS02004406           JUNCTION        1.92          0.778        1.672
  WS02004409           JUNCTION        1.11          0.376        1.984
  WS02004410           JUNCTION        1.02          0.289        2.251
  WS02004411           JUNCTION        0.97          0.198        2.332
  WS02004412           JUNCTION        0.85          0.099        2.211
  WS02004413           JUNCTION        1.55          0.551        1.649
  WS02006109           JUNCTION        3.04          1.820        0.000
  WS02006110           JUNCTION        2.23          1.850        0.000
  WS02006111           JUNCTION        1.52          1.685        0.185
  WS02006112           JUNCTION        2.48          1.680        0.000
  WS02006113           JUNCTION        1.55          1.774        0.156
  WS02006115           JUNCTION        1.68          1.122        1.128
  WS02006116           JUNCTION        1.70          0.952        1.338
  WS02006228           JUNCTION        3.03          2.197        0.003
  WS02006229           JUNCTION        1.01          1.044        0.026
  WS02006230           JUNCTION        2.01          1.570        0.000
  WS02006231           JUNCTION        2.25          1.530        0.000
  WS02006232           JUNCTION        2.99          1.480        0.000
  WS02006234           JUNCTION        2.90          1.240        0.000
  WS02006235           JUNCTION        2.94          1.290        0.000
  WS02006238           JUNCTION        2.97          1.315        0.115
  WS02006239           JUNCTION        2.94          1.290        0.000
  WS02006240           JUNCTION        2.95          1.390        0.000
  WS02006242           JUNCTION        2.97          0.820        0.000
  WS02006243           JUNCTION        2.94          0.770        0.000
  WS02006245           JUNCTION        2.94          0.850        0.000
  WS02006247           JUNCTION        2.94          0.760        0.000
  WS02006248           JUNCTION        2.93          0.380        0.000
  WS02006249           JUNCTION        2.93          0.390        0.000
  WS02006251           JUNCTION        2.44          1.180        0.000
  WS02006252           JUNCTION        3.52          1.100        0.000
  WS02006253           JUNCTION        2.53          2.248        0.232
  WS02006256           JUNCTION        7.50          2.050        0.000
  WS02006280           JUNCTION        0.87          0.694        0.086
  WS02006284           JUNCTION        0.77          0.668        0.132
  WS02006287           JUNCTION        0.66          0.739        0.151
  YS02001580           JUNCTION        0.67          0.450        0.000
  YS02001583           JUNCTION        0.68          0.500        0.000
  YS02001586           JUNCTION        0.87          0.510        0.000
  YS02001590           JUNCTION        0.96          0.750        0.000
  YS02001593           JUNCTION        0.96          0.724        0.116
  YS02001596           JUNCTION        1.08          0.964        0.106
  YS02001600           JUNCTION        1.26          1.190        0.000
  YS02001601           JUNCTION        1.65          1.440        0.000
  YS02001602           JUNCTION        1.57          1.270        0.000
  YS02001605           JUNCTION        1.52          1.180        0.000
  YS02001607           JUNCTION        0.94          0.680        0.000
  YS02001610           JUNCTION        0.97          0.680        0.000
  YS02001613           JUNCTION        0.94          0.680        0.020
  YS02001616           JUNCTION        0.89          0.610        0.000
  YS02001619           JUNCTION        0.88          0.610        0.000
  YS02001622           JUNCTION        0.87          0.620        0.000
  YS02001625           JUNCTION        1.08          0.780        0.000
  YS02001629           JUNCTION        0.82          0.470        0.000
  YS02001633           JUNCTION        1.11          1.028        0.032
  YS02001641           JUNCTION        1.06          0.959        0.141
  YS02001644           JUNCTION        1.03          0.920        0.000
  YS02001647           JUNCTION        0.80          0.795        0.105
  YS02001649           JUNCTION        0.96          1.050        0.000
  YS02001652           JUNCTION        0.71          0.892        0.238
  YS02001655           JUNCTION        0.46          1.012        0.188
  YS02001658           JUNCTION        0.19          0.800        0.500
  YS02001661           JUNCTION        0.01          0.480        0.910
  YS02001745           JUNCTION        0.01          0.623        0.727
  YS02001748           JUNCTION        0.04          0.897        0.293
  YS02001751           JUNCTION        0.29          1.200        0.000
  YS02001754           JUNCTION        0.58          1.150        0.000
  YS02001757           JUNCTION        1.04          1.210        0.000
  YS02001759           JUNCTION        0.93          1.210        0.000
  YS02001762           JUNCTION        0.89          1.150        0.000
  YS02001765           JUNCTION        0.83          1.100        0.000
  YS02001767           JUNCTION        0.79          1.030        0.000
  YS02001770           JUNCTION        0.75          0.920        0.000
  YS02001774           JUNCTION        0.86          1.006        0.044
  YS02001779           JUNCTION        0.56          0.680        0.000
  YS02001783           JUNCTION        0.59          0.725        0.875
  YS02001784           JUNCTION        0.57          0.495        0.995
  YS02001786           JUNCTION        0.46          0.203        1.227
  YS02001882           JUNCTION        0.53          0.774        0.056
  YS02001884           JUNCTION        0.54          0.794        0.076
  YS02001887           JUNCTION        0.58          0.834        0.116
  YS02001890           JUNCTION        0.60          0.760        0.000
  YS02001895           JUNCTION        0.52          0.715        0.035
  YS02001898           JUNCTION        0.51          0.740        0.000
  YS02001901           JUNCTION        0.57          0.870        0.000
  YS02001904           JUNCTION        0.56          0.734        0.116
  YS02001907           JUNCTION        0.81          0.950        0.000
  YS02001910           JUNCTION        0.63          0.988        0.112
  YS02001915           JUNCTION        0.53          0.935        0.065
  YS02001918           JUNCTION        0.44          0.810        0.000
  YS02001920           JUNCTION        0.45          1.140        0.000
  YS02001923           JUNCTION        0.02          0.820        0.000
  YS02001926           JUNCTION        0.04          0.900        0.000
  YS02001929           JUNCTION        0.01          0.780        0.000
  YS02006553           JUNCTION        0.84          1.036        0.154
  YS02006556           JUNCTION        0.72          1.048        0.302
  YS02006558           JUNCTION        0.71          1.050        0.350
  YS02006561           JUNCTION        0.40          0.472        0.678
  YS02163301           JUNCTION        1.09          0.951        0.079
  YS02163601           JUNCTION        1.14          1.053        0.027
  YS02164001           JUNCTION        1.06          0.967        0.133
  YSB1154              JUNCTION        1.00          1.262        0.138
  YSB1171              JUNCTION        1.01          1.100        0.000
  YSB1174              JUNCTION        0.88          1.131        0.119
  YSB6556              JUNCTION        0.80          1.055        0.045
  
  
  *********************
  Node Flooding Summary
  *********************
  
  Flooding refers to all water that overflows a node, whether it ponds or not.
  --------------------------------------------------------------------------
                                                             Total   Maximum
                                 Maximum   Time of Max       Flood    Ponded
                        Hours       Rate    Occurrence      Volume     Depth
  Node                 Flooded       LPS   days hr:min    10^6 ltr    Meters
  --------------------------------------------------------------------------
  HS02004770              0.37    831.49      0  01:39       0.596     0.000
  HS02004777              0.01    123.90      0  01:35       0.002     0.000
  HS02004785              0.01    388.16      0  01:34       0.003     0.000
  HS02004788              0.01    252.77      0  01:34       0.001     0.000
  HS02004792              0.40   1193.42      0  01:40       1.008     0.000
  HS02004799              0.17    227.61      0  01:38       0.060     0.000
  HS02004807              0.01     12.79      0  01:35       0.000     0.000
  HS02004817              0.01     28.56      0  01:35       0.000     0.000
  HS02004824              0.01     26.85      0  01:35       0.000     0.000
  HS02004830              0.01      8.19      0  01:35       0.000     0.000
  HS02004837              0.01    289.41      0  01:35       0.000     0.000
  HS02004842              0.01     41.75      0  01:37       0.000     0.000
  HS02004862              0.01    174.51      0  01:37       0.002     0.000
  HS02004870              0.01     82.39      0  01:37       0.000     0.000
  HS02004876              0.01     59.37      0  01:37       0.000     0.000
  HS02004881              0.01    772.76      0  01:37       0.003     0.000
  HS02004901              0.48    546.68      0  01:41       0.688     0.000
  WS02006109              0.47    255.70      0  01:39       0.254     0.000
  WS02006110              0.01     27.22      0  01:31       0.000     0.000
  WS02006112              0.01    104.74      0  01:31       0.000     0.000
  WS02006230              0.78    568.01      0  01:39       1.063     0.000
  WS02006231              0.01     98.20      0  01:29       0.000     0.000
  WS02006232              0.20     46.60      0  01:29       0.000     0.000
  WS02006234              0.83    129.46      0  02:09       0.248     0.000
  WS02006235              0.01     11.40      0  01:29       0.000     0.000
  WS02006239              0.01    205.84      0  01:29       0.000     0.000
  WS02006240              0.01    240.64      0  01:29       0.000     0.000
  WS02006242              1.00    339.82      0  01:29       0.426     0.000
  WS02006243              0.01    298.32      0  01:29       0.001     0.000
  WS02006245              0.01    131.04      0  01:29       0.000     0.000
  WS02006247              0.01    288.86      0  01:29       0.001     0.000
  WS02006248              1.43    353.10      0  01:30       1.365     0.000
  WS02006249              2.17   1290.72      0  01:37       5.030     0.000
  WS02006251              0.01    149.00      0  01:37       0.001     0.000
  WS02006252              0.54    591.07      0  01:38       0.512     0.000
  WS02006256              0.99    294.09      0  01:51       0.595     0.000
  YS02001580              0.01     81.20      0  01:35       0.000     0.000
  YS02001583              0.01    193.17      0  01:35       0.000     0.000
  YS02001586              0.52    262.06      0  01:43       0.273     0.000
  YS02001590              0.01     19.53      0  01:35       0.000     0.000
  YS02001600              0.01      4.24      0  01:35       0.000     0.000
  YS02001601              0.78    989.32      0  01:41       1.351     0.000
  YS02001602              0.66     62.01      0  01:57       0.134     0.000
  YS02001605              0.01      3.10      0  01:35       0.000     0.000
  YS02001607              0.01      0.34      0  01:50       0.000     0.000
  YS02001610              0.58    508.01      0  01:43       0.575     0.000
  YS02001616              0.01     74.01      0  01:35       0.000     0.000
  YS02001619              0.01     68.01      0  01:35       0.000     0.000
  YS02001622              0.01    159.38      0  01:35       0.000     0.000
  YS02001625              0.55   1133.93      0  01:42       1.049     0.000
  YS02001629              0.08    300.00      0  01:35       0.033     0.000
  YS02001644              0.14    547.83      0  01:39       0.130     0.000
  YS02001649              0.01     10.51      0  01:38       0.000     0.000
  YS02001751              0.01     44.22      0  01:38       0.000     0.000
  YS02001754              0.01    112.49      0  01:38       0.000     0.000
  YS02001757              0.01     39.12      0  01:38       0.000     0.000
  YS02001762              0.01     14.99      0  01:38       0.000     0.000
  YS02001765              0.01     11.26      0  01:38       0.000     0.000
  YS02001767              0.01      7.48      0  01:38       0.000     0.000
  YS02001770              0.01     64.92      0  01:38       0.001     0.000
  YS02001779              0.11    546.75      0  01:37       0.043     0.000
  YS02001890              0.13    168.92      0  01:39       0.049     0.000
  YS02001898              0.01     12.00      0  01:36       0.000     0.000
  YS02001901              0.01      3.86      0  01:36       0.000     0.000
  YS02001907              0.38   1425.73      0  01:41       1.026     0.000
  YS02001918              0.01    199.46      0  01:37       0.003     0.000
  YS02001920              0.01     26.47      0  01:37       0.000     0.000
  YS02001923              0.01    204.28      0  01:37       0.001     0.000
  YS02001926              0.01    585.56      0  01:37       0.004     0.000
  YS02001929              0.01   1071.49      0  01:37       0.004     0.000
  YSB1171                 0.28    813.52      0  01:40       0.464     0.000
  
  
  **********************
  Storage Volume Summary
  **********************
  
  --------------------------------------------------------------------------------------------------
                         Average     Avg  Evap Exfil       Maximum     Max    Time of Max    Maximum
                          Volume    Pcnt  Pcnt  Pcnt        Volume    Pcnt     Occurrence    Outflow
  Storage Unit           1000 m3    Full  Loss  Loss       1000 m3    Full    days hr:min        LPS
  --------------------------------------------------------------------------------------------------
  CC-storage               2.360      37     0     0         4.639      72       0  02:16    1783.53
  JK-storage               0.070      24     0     0         0.212      73       0  01:40    2300.00
  XR-storage               0.948      66     0     0         1.111      77       0  08:00     380.00
  
  
  ***********************
  Outfall Loading Summary
  ***********************
  
  -----------------------------------------------------------
                         Flow       Avg       Max       Total
                         Freq      Flow      Flow      Volume
  Outfall Node           Pcnt       LPS       LPS    10^6 ltr
  -----------------------------------------------------------
  CC-1                  22.92    683.00    683.00       3.946
  CC-2                  17.24    683.00    683.00       2.911
  JK-1                   7.63   1000.00   1000.00       1.955
  JK-2                   6.00   1000.00   1000.00       1.538
  WSC                   99.96    651.49   1514.08      16.944
  -----------------------------------------------------------
  System                30.75   4017.49   4829.52      27.293
  
  
  ********************
  Link Flow Summary
  ********************
  
  -----------------------------------------------------------------------------
                                 Maximum  Time of Max   Maximum    Max/    Max/
                                  |Flow|   Occurrence   |Veloc|    Full    Full
  Link                 Type          LPS  days hr:min     m/sec    Flow   Depth
  -----------------------------------------------------------------------------
  1                    CONDUIT   1514.08     0  01:44      3.70    0.53    0.52
  HS02004478WS02006287 CONDUIT   2293.66     0  01:39      2.59    0.64    1.00
  HS02004479HS02004480 CONDUIT    538.83     0  01:36      0.77    0.52    1.00
  HS02004480HS02004478 CONDUIT   2188.78     0  01:35      3.13    9.22    1.00
  HS02004770HS02004777 CONDUIT    835.95     0  01:34      1.19    1.53    1.00
  HS02004777HS02004785 CONDUIT    869.36     0  01:34      1.37    1.07    1.00
  HS02004785HS02004788 CONDUIT    619.62     0  02:03      1.34    4.67    1.00
  HS02004788HS02004792 CONDUIT    808.43     0  02:03      1.43    0.53    1.00
  HS02004792HS02004799 CONDUIT   1563.26     0  01:35      2.23    0.96    1.00
  HS02004799HS02004480 CONDUIT   1763.66     0  01:35      2.52    2.23    1.00
  HS02004802HS02004478 CONDUIT   1122.40     0  01:40      1.60    0.99    1.00
  HS02004807HS02004802 CONDUIT   1122.36     0  01:40      1.60    2.14    1.00
  HS02004817HS02004807 CONDUIT    735.92     0  01:41      1.05    0.44    1.00
  HS02004817HS02004824 CONDUIT    735.18     0  01:41      1.05    0.33    1.00
  HS02004824HS02004830 CONDUIT    763.29     0  01:35      1.10    1.00    1.00
  HS02004830HS02004837 CONDUIT    761.99     0  01:35      1.15    0.76    1.00
  HS02004837HS02004842 CONDUIT   1037.60     0  01:35      1.48    0.62    1.00
  HS02004842HS02004848 CONDUIT   1038.68     0  01:35      1.66    0.60    1.00
  HS02004848HS02004852 CONDUIT   1204.04     0  01:36      1.73    1.36    1.00
  HS02004852HS02004856 CONDUIT   1207.97     0  01:36      1.73    1.38    1.00
  HS02004856HS02004862 CONDUIT   1352.70     0  01:36      1.96    1.35    1.00
  HS02004862HS02004870 CONDUIT   1461.09     0  01:36      2.22    1.58    1.00
  HS02004870HS02004876 CONDUIT   1492.58     0  01:37      2.13    0.99    1.00
  HS02004876HS02004881 CONDUIT   1677.36     0  01:37      2.47   17.84    1.00
  HS02004881HS02006253 CONDUIT   1578.23     0  01:37      2.54    0.31    1.00
  HS02004901HS02004770 CONDUIT    265.79     0  01:57      0.38    1.00    1.00
  WS02001211WS02001212 CONDUIT    267.03     0  01:40      0.54    0.20    0.71
  WS02001212WS02001213 CONDUIT    293.40     0  01:40      1.04    0.45    0.58
  WS02001213WS02003059 CONDUIT    251.96     0  01:42      0.47    0.42    0.91
  WS02003059WS02003060 CONDUIT    267.24     0  01:41      0.65    0.17    0.82
  WS02003060WS02003069 CONDUIT   1523.21     0  01:42      2.10    0.60    0.61
  WS02003066WSF200     CONDUIT   1295.65     0  01:38      3.56    0.22    0.39
  WS02003067WS02003066 CONDUIT   1297.28     0  01:40      2.04    0.42    0.56
  WS02003069WS02003072 CONDUIT   1515.46     0  01:42      1.90    0.73    0.66
  WS02003072WS02003073 CONDUIT   1513.16     0  01:43      2.06    3.27    0.62
  WS02004138WS02004139 CONDUIT    190.00     0  00:32      2.16    0.04    0.43
  WS02004139WS02001211 CONDUIT    294.92     0  01:37      0.54    0.37    0.62
  WS02004401WS02004402 CONDUIT   1293.21     0  01:39      1.65    1.55    1.00
  WS02004402WS02004403 CONDUIT   1292.73     0  01:39      1.65    1.86    1.00
  WS02004403WS02004404 CONDUIT   1292.76     0  01:39      1.65    0.93    1.00
  WS02004404WS02004405 CONDUIT   1293.52     0  01:39      1.65   12.67    1.00
  WS02004405WS02004406 CONDUIT   1294.24     0  01:39      1.65    2.55    1.00
  WS02004406WS02004407 CONDUIT   1294.52     0  01:39      1.95    0.58    0.95
  WS02004407WS02004409 CONDUIT   1291.36     0  01:40      2.15    0.46    0.95
  WS02004409WS02004410 CONDUIT   1291.54     0  01:40      1.64    1.67    1.00
  WS02004410WS02004411 CONDUIT   1291.82     0  01:39      1.64    1.76    1.00
  WS02004411WS02004412 CONDUIT   1291.26     0  01:40      1.64    1.83    1.00
  WS02004412WS02004413 CONDUIT   1291.28     0  01:39      1.64    0.86    1.00
  WS02004413WS02003067 CONDUIT   1291.44     0  01:39      2.00    0.55    0.77
  WS02006109WS02006110 CONDUIT   1158.06     0  01:31      2.30    2.23    1.00
  WS02006110WS02006113 CONDUIT   1158.12     0  01:31      2.31    1.05    1.00
  WS02006111WS02006112 CONDUIT   1123.48     0  02:03      2.24    0.53    1.00
  WS02006112WS02006115 CONDUIT   1291.53     0  01:39      1.64    0.76    1.00
  WS02006113WS02006111 CONDUIT   1127.64     0  01:31      2.69    1.35    1.00
  WS02006115WS02006116 CONDUIT   1292.40     0  01:39      1.65    1.66    1.00
  WS02006116WS02004401 CONDUIT   1292.84     0  01:39      1.65    1.78    1.00
  WS02006228WS02006109 CONDUIT   1282.52     0  01:39      2.55    5.60    1.00
  WS02006229WS02006228 CONDUIT   1282.52     0  01:39      2.55    4.25    1.00
  WS02006230WS02006229 CONDUIT   1010.64     0  01:38      2.63   22.49    1.00
  WS02006231WS02006230 CONDUIT    564.94     0  04:00      1.50    8.57    1.00
  WS02006232WS02006231 CONDUIT    562.54     0  04:10      1.46    1.18    1.00
  WS02006234WS02006232 CONDUIT    562.32     0  04:10      1.46    1.14    1.00
  WS02006235WS02006234 CONDUIT    559.29     0  04:10      1.45    5.90    1.00
  WS02006238WS02006235 CONDUIT    434.27     0  04:15      1.45    0.97    1.00
  WS02006239WS02006238 CONDUIT    427.82     0  04:01      1.12    1.37    1.00
  WS02006240WS02006239 CONDUIT    428.34     0  04:01      1.26    1.35    1.00
  WS02006242WS02006240 CONDUIT    426.93     0  04:00      1.14    1.70    1.00
  WS02006243WS02006242 CONDUIT    429.50     0  04:00      1.34    0.92    1.00
  WS02006245WS02006243 CONDUIT    430.84     0  04:00      1.39    1.27    1.00
  WS02006247WS02006245 CONDUIT    431.70     0  04:00      1.37    3.42    1.00
  WS02006248WS02006247 CONDUIT    431.23     0  04:00      1.41    0.94    1.00
  WS02006249WS02006248 CONDUIT    430.95     0  04:00      1.38    2.36    1.00
  WS02006251WS02006249 CONDUIT   1349.80     0  01:37      3.51    3.89    1.00
  WS02006252WS02006251 CONDUIT    418.01     0  01:30     26.56    1.53    1.00
  WS02006253WS02006251 CONDUIT   1612.46     0  01:37      4.19    4.84    1.00
  WS02006256WS02006235 CONDUIT    288.93     0  00:00      4.23    3.06    1.00
  WS02006280WS02006229 CONDUIT   2293.91     0  01:39      4.57    0.49    1.00
  WS02006284WS02006280 CONDUIT   2293.05     0  01:39      3.02    0.96    1.00
  WS02006287WS02006284 CONDUIT   2292.88     0  01:39      2.92    1.06    1.00
  WSF200WS02003060     CONDUIT   1307.53     0  01:40      2.78    0.29    0.51
  YS02001580YS02001583 CONDUIT    168.46     0  01:35      0.90    0.65    1.00
  YS02001583YS02001586 CONDUIT    207.30     0  01:35      0.93    0.31    1.00
  YS02001586YS02001590 CONDUIT    318.04     0  01:57      1.27    0.56    1.00
  YS02001590YS02001593 CONDUIT    318.13     0  01:40      1.13    2.00    1.00
  YS02001593YS02001596 CONDUIT    318.09     0  01:39      1.73    0.50    1.00
  YS02001596YS02001600 CONDUIT    318.03     0  01:40      1.21    0.62    1.00
  YS02001600YS02001601 CONDUIT    318.01     0  01:39      1.12    0.55    1.00
  YS02001601YS02001602 CONDUIT    576.60     0  01:34      2.04    2.08    1.00
  YS02001602YS02001605 CONDUIT    576.54     0  01:34      2.04   12.20    1.00
  YS02001605YS02001607 CONDUIT    576.14     0  01:34      2.04    3.16    1.00
  YS02001607YS02001610 CONDUIT    539.23     0  01:34      0.71    0.51    1.00
  YS02001610YS02001613 CONDUIT    516.86     0  01:35      0.67    0.60    1.00
  YS02001613YS02001616 CONDUIT    507.78     0  01:35      0.66    0.44    1.00
  YS02001616YS02001619 CONDUIT    487.10     0  01:35      0.68    0.85    1.00
  YS02001619YS02001622 CONDUIT    932.64     0  01:35      1.28    1.37    1.00
  YS02001622YS02001625 CONDUIT    926.94     0  01:35      1.18    0.49    1.00
  YS02001625YS02001629 CONDUIT    926.97     0  01:35      1.18    0.44    1.00
  YS02001629YS02163301 CONDUIT    886.89     0  01:36      1.13    1.09    1.00
  YS02001633YS02163601 CONDUIT   1428.34     0  01:36      1.82    1.50    1.00
  YS02001641YS02001644 CONDUIT   1427.24     0  01:36      1.82    4.61    1.00
  YS02001644YS02001647 CONDUIT   1942.74     0  01:36      2.47    1.14    1.00
  YS02001647YS02001649 CONDUIT   1941.83     0  01:36      2.47    1.03    1.00
  YS02001649YS02001757 CONDUIT   2203.40     0  01:37      2.81    1.34    1.00
  YS02001652YS02001649 CONDUIT    892.65     0  01:39      1.14    0.44    1.00
  YS02001655YS02001652 CONDUIT    891.51     0  01:39      1.53    0.43    1.00
  YS02001658YS02001655 CONDUIT    890.00     0  01:39      2.06    0.38    1.00
  YS02001661YS02001658 CONDUIT    888.10     0  01:39      2.46    0.35    1.00
  YS02001664YS02001661 CONDUIT    857.54     0  01:39      2.51    0.27    0.87
  YS02001745YS02001748 CONDUIT    636.05     0  01:38      2.42    0.24    1.00
  YS02001748YS02001751 CONDUIT    640.47     0  01:38      1.92    0.32    1.00
  YS02001751YS02001754 CONDUIT    643.44     0  01:38      1.58    0.31    1.00
  YS02001754YS02001757 CONDUIT    647.00     0  01:38      0.82    0.26    1.00
  YS02001757CaochengTiaoxuchi CONDUIT   3512.47     0  01:38      4.63    1.52    1.00
  YS02001759YS02001757 CONDUIT   1478.20     0  01:38      1.88    1.05    1.00
  YS02001762YS02001759 CONDUIT    852.43     0  01:38      1.09    0.98    1.00
  YS02001765YS02001762 CONDUIT    852.55     0  01:38      1.09    0.80    1.00
  YS02001767YS02001765 CONDUIT    855.62     0  01:38      1.09    1.08    1.00
  YS02001770YS02001767 CONDUIT    855.32     0  01:38      1.09    3.39    1.00
  YS02001774YS02001770 CONDUIT    570.48     0  01:37      0.73    0.36    1.00
  YS02001779YS02001774 CONDUIT    580.20     0  01:37      0.74    0.29    1.00
  YS02001783YS02001784 CONDUIT   1161.11     0  01:37      2.31    1.60    1.00
  YS02001784YS02001785 CONDUIT   1162.35     0  01:38      2.31    2.70    1.00
  YS02001786YS02001788 CONDUIT   1162.44     0  01:38      2.48    2.24    0.89
  YS02001788YS02001790 CONDUIT   1174.48     0  01:39      2.71    0.87    0.84
  YS02001790YS02001791 CONDUIT   1287.69     0  01:43      3.43    1.40    0.70
  YS02001791YS02001793 CONDUIT   1253.97     0  01:39      6.75    0.54    0.44
  YS02001793JiankangQianchi CONDUIT   1231.82     0  01:54      2.47    0.10    0.65
  YS02001882YS02001884 CONDUIT    103.60     0  01:35      0.17    0.12    1.00
  YS02001884YS02001887 CONDUIT    144.67     0  01:35      0.18    0.19    1.00
  YS02001887YS02001890 CONDUIT    692.51     0  01:39      0.88    1.19    1.00
  YS02001890YS02001895 CONDUIT    601.49     0  01:36      0.77    0.28    1.00
  YS02001895YS02001898 CONDUIT    605.38     0  01:36      0.77    1.05    1.00
  YS02001898YS02001901 CONDUIT    607.51     0  01:36      0.77    0.39    1.00
  YS02001901YS02001904 CONDUIT    607.56     0  01:36      0.77    0.94    1.00
  YS02001904YS02001907 CONDUIT    602.24     0  01:36      0.77    0.21    1.00
  YS02001907YS02006553 CONDUIT    791.52     0  02:00      0.88    0.93    1.00
  YS02001910YS02001907 CONDUIT   1180.79     0  01:41      1.50    0.67    1.00
  YS02001915YS02001910 CONDUIT   1180.67     0  01:41      1.50    0.59    1.00
  YS02001918YS02001915 CONDUIT    726.33     0  01:36      0.93    0.40    1.00
  YS02001920YS02001918 CONDUIT    704.27     0  01:36      0.90    0.68    1.00
  YS02001923YS02001920 CONDUIT    725.92     0  01:36      1.00    0.33    1.00
  YS02001926YS02001923 CONDUIT    934.59     0  01:36      1.40    1.33    1.00
  YS02001929YS02001926 CONDUIT    827.43     0  01:37      1.23    0.39    1.00
  YS02006553YS02006556 CONDUIT    791.01     0  02:00      1.01    0.68    1.00
  YS02006556YS02006558 CONDUIT    792.40     0  02:00      1.01    0.63    1.00
  YS02006558YS02006561 CONDUIT   1206.18     0  01:36      4.27    2.67    1.00
  YS02006561YS02001783 CONDUIT   1161.19     0  01:38      2.31    0.60    1.00
  YS02163301YS02001633 CONDUIT    885.13     0  01:36      1.13    0.83    1.00
  YS02163601YS02164001 CONDUIT   1428.71     0  01:36      1.82    1.27    1.00
  YS02164001YS02001641 CONDUIT   1428.49     0  01:36      1.82    1.95    1.00
  YSB1154YSB6556       CONDUIT    366.50     0  01:40      0.95    0.66    1.00
  YSB1171HS02004479    CONDUIT    542.04     0  01:36      1.08    0.36    1.00
  YSB1174YSB1171       CONDUIT    324.49     0  01:38      0.84    0.50    1.00
  YSB6556YSB1171       CONDUIT    366.90     0  01:40      0.95    0.38    1.00
  CC-R1                PUMP       683.00     0  00:00              1.00
  CC-R2                PUMP       683.00     0  00:00              1.00
  CC-S1                PUMP       200.00     0  00:00              1.00
  CC-S2                PUMP       200.00     0  00:00              1.00
  JK-R1                PUMP      1000.00     0  00:00              1.00
  JK-R2                PUMP      1000.00     0  00:00              1.00
  JK-S                 PUMP       300.00     0  00:00              1.00
  XR-1                 PUMP        95.00     0  00:00              1.00
  XR-2                 PUMP        95.00     0  00:00              1.00
  XR-3                 PUMP        95.00     0  00:00              1.00
  XR-4                 PUMP        95.00     0  00:00              1.00
  
  
  ***************************
  Flow Classification Summary
  ***************************
  
  -------------------------------------------------------------------------------------
                      Adjusted    ---------- Fraction of Time in Flow Class ---------- 
                       /Actual         Up    Down  Sub   Sup   Up    Down  Norm  Inlet 
  Conduit               Length    Dry  Dry   Dry   Crit  Crit  Crit  Crit  Ltd   Ctrl  
  -------------------------------------------------------------------------------------
  1                       1.00   0.00  0.00  0.00  0.00  1.00  0.00  0.00  0.47  0.00
  HS02004478WS02006287    1.00   0.13  0.00  0.00  0.65  0.23  0.00  0.00  0.59  0.00
  HS02004479HS02004480    1.00   0.05  0.00  0.00  0.95  0.00  0.00  0.00  0.11  0.00
  HS02004480HS02004478    1.00   0.12  0.00  0.00  0.60  0.00  0.00  0.28  0.00  0.00
  HS02004770HS02004777    1.00   0.00  0.12  0.00  0.88  0.00  0.00  0.00  0.02  0.00
  HS02004777HS02004785    1.00   0.00  0.00  0.00  1.00  0.00  0.00  0.00  0.11  0.00
  HS02004785HS02004788    1.00   0.00  0.00  0.00  1.00  0.00  0.00  0.00  0.00  0.00
  HS02004788HS02004792    1.00   0.00  0.00  0.00  0.99  0.01  0.00  0.00  0.89  0.00
  HS02004792HS02004799    1.00   0.00  0.00  0.00  0.99  0.01  0.00  0.00  0.84  0.00
  HS02004799HS02004480    1.00   0.00  0.05  0.00  0.87  0.00  0.08  0.00  0.00  0.00
  HS02004802HS02004478    1.00   0.12  0.00  0.00  0.88  0.00  0.00  0.00  0.02  0.00
  HS02004807HS02004802    1.00   0.12  0.00  0.00  0.88  0.00  0.00  0.01  0.00  0.00
  HS02004817HS02004807    1.00   0.00  0.12  0.00  0.88  0.00  0.00  0.00  0.01  0.00
  HS02004817HS02004824    1.00   0.00  0.00  0.00  1.00  0.00  0.00  0.00  0.79  0.00
  HS02004824HS02004830    1.00   0.00  0.00  0.00  1.00  0.00  0.00  0.00  0.00  0.00
  HS02004830HS02004837    1.00   0.00  0.00  0.00  1.00  0.00  0.00  0.00  0.86  0.00
  HS02004837HS02004842    1.00   0.00  0.00  0.00  1.00  0.00  0.00  0.00  0.11  0.00
  HS02004842HS02004848    1.00   0.00  0.12  0.00  0.88  0.00  0.00  0.00  0.55  0.00
  HS02004848HS02004852    1.00   0.12  0.00  0.00  0.88  0.00  0.00  0.00  0.71  0.00
  HS02004852HS02004856    1.00   0.12  0.00  0.00  0.88  0.00  0.00  0.00  0.65  0.00
  HS02004856HS02004862    1.00   0.00  0.13  0.00  0.87  0.00  0.00  0.00  0.74  0.00
  HS02004862HS02004870    1.00   0.00  0.00  0.00  1.00  0.00  0.00  0.00  0.02  0.00
  HS02004870HS02004876    1.00   0.00  0.00  0.00  0.97  0.03  0.00  0.00  0.84  0.00
  HS02004876HS02004881    1.00   0.02  0.00  0.00  0.79  0.19  0.00  0.00  0.00  0.00
  HS02004881HS02006253    1.00   0.00  0.07  0.00  0.66  0.01  0.00  0.26  0.39  0.00
  HS02004901HS02004770    1.00   0.12  0.00  0.00  0.88  0.00  0.00  0.00  0.00  0.00
  WS02001211WS02001212    1.00   0.00  0.03  0.00  0.97  0.00  0.00  0.00  0.00  0.00
  WS02001212WS02001213    1.00   0.03  0.01  0.00  0.65  0.00  0.32  0.00  0.00  0.00
  WS02001213WS02003059    1.00   0.00  0.00  0.00  1.00  0.00  0.00  0.00  0.00  0.00
  WS02003059WS02003060    1.00   0.00  0.00  0.00  1.00  0.00  0.00  0.00  0.03  0.00
  WS02003060WS02003069    1.00   0.00  0.00  0.00  0.97  0.03  0.00  0.00  0.39  0.00
  WS02003066WSF200        1.00   0.08  0.00  0.00  0.00  0.92  0.00  0.00  0.61  0.00
  WS02003067WS02003066    1.00   0.07  0.00  0.00  0.92  0.00  0.00  0.00  0.00  0.00
  WS02003069WS02003072    1.00   0.00  0.00  0.00  1.00  0.00  0.00  0.00  0.43  0.00
  WS02003072WS02003073    1.00   0.00  0.00  0.00  0.00  0.00  0.00  1.00  0.00  0.00
  WS02004138WS02004139    1.00   0.00  0.01  0.00  0.96  0.02  0.00  0.01  0.98  0.00
  WS02004139WS02001211    1.00   0.00  0.00  0.00  0.99  0.00  0.00  0.00  0.00  0.00
  WS02004401WS02004402    1.00   0.03  0.00  0.00  0.97  0.00  0.00  0.00  0.00  0.00
  WS02004402WS02004403    1.00   0.03  0.00  0.00  0.97  0.00  0.00  0.00  0.00  0.00
  WS02004403WS02004404    1.00   0.00  0.03  0.00  0.96  0.00  0.00  0.00  0.00  0.00
  WS02004404WS02004405    1.00   0.00  0.00  0.00  1.00  0.00  0.00  0.00  0.00  0.00
  WS02004405WS02004406    1.00   0.00  0.00  0.00  1.00  0.00  0.00  0.00  0.00  0.00
  WS02004406WS02004407    1.00   0.00  0.05  0.00  0.95  0.00  0.00  0.00  0.00  0.00
  WS02004407WS02004409    1.00   0.05  0.00  0.00  0.93  0.02  0.00  0.00  0.82  0.00
  WS02004409WS02004410    1.00   0.05  0.00  0.00  0.95  0.00  0.00  0.00  0.00  0.00
  WS02004410WS02004411    1.00   0.05  0.00  0.00  0.95  0.00  0.00  0.00  0.00  0.00
  WS02004411WS02004412    1.00   0.05  0.00  0.00  0.94  0.00  0.00  0.00  0.00  0.00
  WS02004412WS02004413    1.00   0.06  0.00  0.00  0.94  0.01  0.00  0.00  0.00  0.00
  WS02004413WS02003067    1.00   0.06  0.02  0.00  0.00  0.00  0.93  0.00  0.00  0.00
  WS02006109WS02006110    1.00   0.00  0.01  0.00  0.99  0.00  0.01  0.00  0.00  0.00
  WS02006110WS02006113    1.00   0.01  0.01  0.00  0.99  0.00  0.00  0.00  0.00  0.00
  WS02006111WS02006112    1.00   0.02  0.00  0.00  0.97  0.01  0.00  0.00  0.73  0.00
  WS02006112WS02006115    1.00   0.02  0.01  0.00  0.97  0.00  0.01  0.00  0.00  0.00
  WS02006113WS02006111    1.00   0.01  0.00  0.00  0.25  0.74  0.00  0.00  0.13  0.00
  WS02006115WS02006116    1.00   0.02  0.00  0.00  0.96  0.00  0.00  0.02  0.00  0.00
  WS02006116WS02004401    1.00   0.02  0.00  0.00  0.97  0.00  0.00  0.00  0.00  0.00
  WS02006228WS02006109    1.00   0.00  0.00  0.00  1.00  0.00  0.00  0.00  0.00  0.00
  WS02006229WS02006228    1.00   0.00  0.00  0.00  0.99  0.00  0.00  0.01  0.00  0.00
  WS02006230WS02006229    1.00   0.00  0.00  0.00  0.99  0.00  0.00  0.01  0.02  0.00
  WS02006231WS02006230    1.00   0.00  0.00  0.00  0.58  0.00  0.42  0.00  0.00  0.00
  WS02006232WS02006231    1.00   0.00  0.00  0.00  1.00  0.00  0.00  0.00  0.00  0.00
  WS02006234WS02006232    1.00   0.00  0.00  0.00  1.00  0.00  0.00  0.00  0.02  0.00
  WS02006235WS02006234    1.00   0.00  0.00  0.00  0.97  0.00  0.03  0.00  0.00  0.00
  WS02006238WS02006235    1.00   0.00  0.00  0.00  1.00  0.00  0.00  0.00  0.00  0.00
  WS02006239WS02006238    1.00   0.00  0.00  0.00  1.00  0.00  0.00  0.00  0.08  0.00
  WS02006240WS02006239    1.00   0.00  0.00  0.00  0.86  0.00  0.00  0.14  0.02  0.00
  WS02006242WS02006240    1.00   0.00  0.00  0.00  0.99  0.00  0.01  0.00  0.00  0.00
  WS02006243WS02006242    1.00   0.00  0.00  0.00  1.00  0.00  0.00  0.00  0.40  0.00
  WS02006245WS02006243    1.00   0.00  0.00  0.00  0.93  0.00  0.00  0.07  0.00  0.00
  WS02006247WS02006245    1.00   0.00  0.00  0.00  0.99  0.00  0.00  0.01  0.00  0.00
  WS02006248WS02006247    1.00   0.00  0.00  0.00  1.00  0.00  0.00  0.00  0.38  0.00
  WS02006249WS02006248    1.00   0.00  0.00  0.00  0.79  0.00  0.21  0.00  0.00  0.00
  WS02006251WS02006249    1.00   0.00  0.00  0.00  1.00  0.00  0.00  0.00  0.37  0.00
  WS02006252WS02006251    1.00   0.00  0.15  0.00  0.35  0.00  0.50  0.00  0.00  0.00
  WS02006253WS02006251    1.00   0.00  0.00  0.00  0.99  0.00  0.01  0.00  0.01  0.00
  WS02006256WS02006235    1.00   0.00  0.00  0.00  0.99  0.01  0.00  0.00  0.00  0.00
  WS02006280WS02006229    1.00   0.12  0.00  0.00  0.21  0.04  0.00  0.63  0.01  0.00
  WS02006284WS02006280    1.00   0.12  0.00  0.00  0.14  0.01  0.00  0.73  0.00  0.00
  WS02006287WS02006284    1.00   0.11  0.02  0.00  0.57  0.30  0.00  0.00  0.66  0.00
  WSF200WS02003060        1.00   0.00  0.08  0.00  0.46  0.46  0.00  0.00  0.42  0.00
  YS02001580YS02001583    1.00   0.19  0.57  0.00  0.24  0.00  0.00  0.00  0.69  0.00
  YS02001583YS02001586    1.00   0.26  0.42  0.00  0.32  0.00  0.00  0.00  0.69  0.00
  YS02001586YS02001590    1.00   0.12  0.00  0.00  0.51  0.07  0.00  0.30  0.34  0.00
  YS02001590YS02001593    1.00   0.12  0.00  0.00  0.16  0.00  0.72  0.00  0.00  0.00
  YS02001593YS02001596    1.00   0.12  0.00  0.00  0.19  0.01  0.00  0.68  0.02  0.00
  YS02001596YS02001600    1.00   0.12  0.00  0.00  0.27  0.01  0.00  0.59  0.04  0.00
  YS02001600YS02001601    1.00   0.12  0.00  0.00  0.88  0.00  0.00  0.00  0.59  0.00
  YS02001601YS02001602    1.00   0.12  0.00  0.00  0.88  0.00  0.00  0.00  0.00  0.00
  YS02001602YS02001605    1.00   0.12  0.00  0.00  0.88  0.00  0.00  0.00  0.00  0.00
  YS02001605YS02001607    1.00   0.12  0.00  0.00  0.88  0.00  0.00  0.00  0.00  0.00
  YS02001607YS02001610    1.00   0.12  0.00  0.00  0.88  0.00  0.00  0.00  0.01  0.00
  YS02001610YS02001613    1.00   0.12  0.00  0.00  0.88  0.00  0.00  0.00  0.00  0.00
  YS02001613YS02001616    1.00   0.12  0.00  0.00  0.88  0.00  0.00  0.00  0.00  0.00
  YS02001616YS02001619    1.00   0.12  0.00  0.00  0.88  0.00  0.00  0.00  0.00  0.00
  YS02001619YS02001622    1.00   0.12  0.00  0.00  0.88  0.00  0.00  0.00  0.29  0.00
  YS02001622YS02001625    1.00   0.12  0.00  0.00  0.88  0.00  0.00  0.00  0.03  0.00
  YS02001625YS02001629    1.00   0.12  0.02  0.00  0.22  0.00  0.64  0.00  0.00  0.00
  YS02001629YS02163301    1.00   0.12  0.00  0.00  0.87  0.00  0.00  0.00  0.00  0.00
  YS02001633YS02163601    1.00   0.00  0.00  0.00  1.00  0.00  0.00  0.00  0.14  0.00
  YS02001641YS02001644    1.00   0.00  0.00  0.00  1.00  0.00  0.00  0.00  0.00  0.00
  YS02001644YS02001647    1.00   0.00  0.13  0.00  0.87  0.00  0.00  0.00  0.00  0.00
  YS02001647YS02001649    1.00   0.00  0.13  0.00  0.49  0.38  0.00  0.00  0.56  0.00
  YS02001649YS02001757    1.00   0.00  0.00  0.00  0.71  0.28  0.00  0.00  0.39  0.00
  YS02001652YS02001649    1.00   0.00  0.00  0.00  0.98  0.02  0.00  0.00  0.71  0.00
  YS02001655YS02001652    1.00   0.00  0.00  0.00  0.25  0.01  0.00  0.74  0.06  0.00
  YS02001658YS02001655    1.00   0.00  0.12  0.00  0.67  0.21  0.00  0.00  0.67  0.00
  YS02001661YS02001658    1.00   0.12  0.00  0.00  0.47  0.41  0.00  0.00  0.72  0.00
  YS02001664YS02001661    1.00   0.12  0.00  0.00  0.71  0.17  0.00  0.00  0.86  0.00
  YS02001745YS02001748    1.00   0.00  0.00  0.00  0.15  0.01  0.00  0.84  0.06  0.00
  YS02001748YS02001751    1.00   0.00  0.00  0.00  0.82  0.18  0.00  0.00  0.77  0.00
  YS02001751YS02001754    1.00   0.00  0.00  0.00  0.23  0.01  0.00  0.77  0.04  0.00
  YS02001754YS02001757    1.00   0.00  0.00  0.00  1.00  0.00  0.00  0.00  0.78  0.00
  YS02001757CaochengTiaoxuchi    1.00   0.00  0.00  0.00  0.97  0.03  0.00  0.00  0.66  0.00
  YS02001759YS02001757    1.00   0.00  0.00  0.00  1.00  0.00  0.00  0.00  0.55  0.00
  YS02001762YS02001759    1.00   0.00  0.00  0.00  1.00  0.00  0.00  0.00  0.03  0.00
  YS02001765YS02001762    1.00   0.00  0.00  0.00  1.00  0.00  0.00  0.00  0.64  0.00
  YS02001767YS02001765    1.00   0.00  0.00  0.00  1.00  0.00  0.00  0.00  0.01  0.00
  YS02001770YS02001767    1.00   0.00  0.00  0.00  1.00  0.00  0.00  0.00  0.00  0.00
  YS02001774YS02001770    1.00   0.00  0.12  0.00  0.80  0.00  0.08  0.00  0.02  0.00
  YS02001779YS02001774    1.00   0.00  0.00  0.00  1.00  0.00  0.00  0.00  0.76  0.00
  YS02001783YS02001784    1.00   0.00  0.14  0.00  0.86  0.00  0.00  0.00  0.55  0.00
  YS02001784YS02001785    1.00   0.00  0.00  0.00  1.00  0.00  0.00  0.00  0.16  0.00
  YS02001786YS02001788    1.00   0.00  0.00  0.00  0.72  0.28  0.00  0.00  0.00  0.00
  YS02001788YS02001790    1.00   0.00  0.00  0.00  0.17  0.83  0.00  0.00  0.79  0.00
  YS02001790YS02001791    1.00   0.00  0.00  0.00  0.01  0.99  0.00  0.00  0.17  0.00
  YS02001791YS02001793    1.00   0.00  0.00  0.00  0.00  1.00  0.00  0.00  0.01  0.00
  YS02001793JiankangQianchi    1.00   0.00  0.00  0.00  0.97  0.03  0.00  0.00  0.96  0.00
  YS02001882YS02001884    1.00   0.12  0.00  0.00  0.87  0.00  0.00  0.00  0.00  0.00
  YS02001884YS02001887    1.00   0.08  0.03  0.00  0.89  0.00  0.00  0.00  0.00  0.00
  YS02001887YS02001890    1.00   0.00  0.00  0.00  0.95  0.00  0.04  0.00  0.00  0.00
  YS02001890YS02001895    1.00   0.00  0.13  0.00  0.87  0.00  0.00  0.00  0.00  0.00
  YS02001895YS02001898    1.00   0.13  0.00  0.00  0.86  0.00  0.01  0.00  0.00  0.00
  YS02001898YS02001901    1.00   0.13  0.00  0.00  0.87  0.00  0.00  0.00  0.01  0.00
  YS02001901YS02001904    1.00   0.13  0.00  0.00  0.87  0.00  0.00  0.00  0.00  0.00
  YS02001904YS02001907    1.00   0.00  0.13  0.00  0.87  0.00  0.00  0.00  0.00  0.00
  YS02001907YS02006553    1.00   0.00  0.02  0.00  0.98  0.00  0.00  0.00  0.00  0.00
  YS02001910YS02001907    1.00   0.00  0.00  0.00  0.96  0.01  0.00  0.03  0.12  0.00
  YS02001915YS02001910    1.00   0.00  0.00  0.00  0.97  0.03  0.00  0.00  0.13  0.00
  YS02001918YS02001915    1.00   0.00  0.00  0.00  0.97  0.03  0.00  0.00  0.74  0.00
  YS02001920YS02001918    1.00   0.00  0.00  0.00  1.00  0.00  0.00  0.00  0.00  0.00
  YS02001923YS02001920    1.00   0.00  0.00  0.00  1.00  0.00  0.00  0.00  0.92  0.00
  YS02001926YS02001923    1.00   0.00  0.09  0.00  0.07  0.00  0.84  0.00  0.00  0.00
  YS02001929YS02001926    1.00   0.00  0.12  0.00  0.88  0.00  0.00  0.00  0.81  0.00
  YS02006553YS02006556    1.00   0.01  0.00  0.00  0.99  0.00  0.00  0.00  0.03  0.00
  YS02006556YS02006558    1.00   0.00  0.00  0.00  1.00  0.00  0.00  0.00  0.00  0.00
  YS02006558YS02006561    1.00   0.13  0.00  0.00  0.07  0.80  0.00  0.00  0.18  0.00
  YS02006561YS02001783    1.00   0.14  0.00  0.00  0.10  0.76  0.00  0.00  0.68  0.00
  YS02163301YS02001633    1.00   0.00  0.12  0.00  0.88  0.00  0.00  0.00  0.00  0.00
  YS02163601YS02164001    1.00   0.00  0.10  0.00  0.90  0.00  0.00  0.00  0.00  0.00
  YS02164001YS02001641    1.00   0.00  0.09  0.00  0.90  0.00  0.00  0.00  0.05  0.00
  YSB1154YSB6556          1.00   0.12  0.00  0.00  0.88  0.00  0.00  0.00  0.01  0.00
  YSB1171HS02004479       1.00   0.06  0.00  0.00  0.92  0.00  0.00  0.02  0.10  0.00
  YSB1174YSB1171          1.00   0.08  0.03  0.00  0.90  0.00  0.00  0.00  0.00  0.00
  YSB6556YSB1171          1.00   0.06  0.06  0.00  0.88  0.00  0.00  0.00  0.00  0.00
  
  
  *************************
  Conduit Surcharge Summary
  *************************
  
  ----------------------------------------------------------------------------
                                                           Hours        Hours 
                         --------- Hours Full --------   Above Full   Capacity
  Conduit                Both Ends  Upstream  Dnstream   Normal Flow   Limited
  ----------------------------------------------------------------------------
  HS02004478WS02006287        0.55      0.55      0.74      0.01         0.01
  HS02004479HS02004480        0.75      0.75      0.76      0.01         0.01
  HS02004480HS02004478        0.67      0.74      0.67      1.82         0.67
  HS02004770HS02004777        0.64      0.64      0.65      0.12         0.09
  HS02004777HS02004785        0.59      0.59      0.65      0.01         0.01
  HS02004785HS02004788        0.57      0.59      0.57      1.66         0.54
  HS02004788HS02004792        0.57      0.57      0.71      0.01         0.01
  HS02004792HS02004799        0.71      0.71      0.84      0.01         0.01
  HS02004799HS02004480        0.74      0.74      0.84      0.97         0.01
  HS02004802HS02004478        0.68      0.68      0.75      0.01         0.01
  HS02004807HS02004802        0.73      0.73      0.75      0.25         0.25
  HS02004817HS02004807        0.73      0.73      1.49      0.01         0.01
  HS02004817HS02004824        0.58      0.58      1.49      0.01         0.01
  HS02004824HS02004830        0.54      0.54      0.58      0.01         0.01
  HS02004830HS02004837        0.49      0.49      0.54      0.01         0.01
  HS02004837HS02004842        0.49      0.49      0.65      0.01         0.01
  HS02004842HS02004848        0.47      0.47      0.65      0.01         0.01
  HS02004848HS02004852        0.47      0.47      0.50      0.02         0.01
  HS02004852HS02004856        0.50      0.50      0.52      0.02         0.01
  HS02004856HS02004862        0.48      0.48      0.52      0.01         0.01
  HS02004862HS02004870        0.52      0.52      0.55      0.14         0.10
  HS02004870HS02004876        0.55      0.55      0.63      0.01         0.01
  HS02004876HS02004881        0.61      0.63      0.61      1.67         0.61
  HS02004881HS02006253        0.61      0.61      2.53      0.01         0.01
  HS02004901HS02004770        0.64      0.64      0.65      0.01         0.01
  WS02003072WS02003073        0.01      0.01      0.01      4.05         0.01
  WS02004401WS02004402        1.78      1.78      1.81      1.64         1.62
  WS02004402WS02004403        1.81      1.81      1.81      1.79         1.76
  WS02004403WS02004404        1.81      1.81      1.99      0.01         0.02
  WS02004404WS02004405        1.95      1.99      1.95      4.77         1.95
  WS02004405WS02004406        1.92      1.95      1.92      2.32         1.92
  WS02004406WS02004407        0.01      0.01      1.92      0.01         0.01
  WS02004407WS02004409        0.01      0.01      1.11      0.01         0.01
  WS02004409WS02004410        1.02      1.11      1.02      1.69         1.02
  WS02004410WS02004411        0.97      1.02      0.97      1.71         0.97
  WS02004411WS02004412        0.85      0.97      0.85      1.78         0.85
  WS02004412WS02004413        0.85      0.85      1.55      0.01         0.01
  WS02004413WS02003067        0.01      0.01      1.55      0.01         0.01
  WS02006109WS02006110        2.23      2.23      3.07      2.24         0.01
  WS02006110WS02006113        1.55      1.55      3.06      0.36         0.01
  WS02006111WS02006112        1.52      1.52      3.70      0.01         0.01
  WS02006112WS02006115        1.68      1.68      2.48      0.01         0.01
  WS02006113WS02006111        1.54      1.55      1.54      1.63         1.54
  WS02006115WS02006116        1.69      1.69      1.70      1.68         1.66
  WS02006116WS02004401        1.78      1.78      1.78      1.73         1.72
  WS02006228WS02006109        3.04      3.07      3.04      4.36         3.04
  WS02006229WS02006228        3.03      3.04      3.03      3.76         3.03
  WS02006230WS02006229        3.24      3.57      3.24      4.80         1.98
  WS02006231WS02006230        2.01      2.01      2.32      4.54         1.15
  WS02006232WS02006231        2.25      2.25      2.99      0.09         0.18
  WS02006234WS02006232        2.92      2.92      2.99      0.04         0.07
  WS02006235WS02006234        2.90      2.90      2.94      4.24         1.11
  WS02006238WS02006235        2.95      2.95      2.98      0.01         0.37
  WS02006239WS02006238        2.96      2.97      2.97      2.58         1.16
  WS02006240WS02006239        2.94      2.95      2.94      2.54         1.14
  WS02006242WS02006240        2.95      2.95      3.09      3.05         1.00
  WS02006243WS02006242        2.94      2.94      2.97      0.01         0.04
  WS02006245WS02006243        2.94      2.94      2.94      1.53         1.11
  WS02006247WS02006245        2.94      2.94      2.94      3.94         1.54
  WS02006248WS02006247        2.93      2.93      2.94      0.01         0.04
  WS02006249WS02006248        2.93      2.93      2.93      2.72         0.01
  WS02006251WS02006249        2.93      2.93      2.93      3.40         2.90
  WS02006252WS02006251        3.50      3.50      3.51      3.09         0.01
  WS02006253WS02006251        2.92      2.93      2.92      0.90         0.02
  WS02006256WS02006235        4.52      4.56      7.44      0.61         0.01
  WS02006280WS02006229        0.88      0.88      1.01      0.01         0.01
  WS02006284WS02006280        0.77      0.77      0.86      0.01         0.01
  WS02006287WS02006284        0.66      0.66      0.78      0.30         0.30
  YS02001580YS02001583        0.67      0.67      0.74      0.01         0.01
  YS02001583YS02001586        0.68      0.68      0.87      0.01         0.01
  YS02001586YS02001590        0.88      0.88      0.95      0.01         0.01
  YS02001590YS02001593        0.96      0.96      0.97      1.03         0.01
  YS02001593YS02001596        0.96      0.96      1.08      0.01         0.01
  YS02001596YS02001600        1.13      1.13      1.26      0.01         0.01
  YS02001600YS02001601        1.34      1.34      1.65      0.01         0.01
  YS02001601YS02001602        1.57      1.57      1.68      1.27         0.01
  YS02001602YS02001605        1.52      1.52      1.57      2.32         0.01
  YS02001605YS02001607        1.45      1.52      1.45      1.62         1.45
  YS02001607YS02001610        0.94      0.94      0.97      0.01         0.01
  YS02001610YS02001613        0.94      0.94      0.97      0.01         0.01
  YS02001613YS02001616        0.89      0.89      0.94      0.01         0.01
  YS02001616YS02001619        0.88      0.88      0.89      0.01         0.01
  YS02001619YS02001622        0.87      0.88      0.87      0.95         0.82
  YS02001622YS02001625        0.87      0.87      1.08      0.01         0.01
  YS02001625YS02001629        0.82      0.82      1.08      0.01         0.01
  YS02001629YS02163301        1.08      1.08      1.09      0.02         0.16
  YS02001633YS02163601        1.11      1.11      1.14      0.41         0.38
  YS02001641YS02001644        1.03      1.06      1.03      1.70         1.02
  YS02001644YS02001647        0.80      0.80      1.03      0.04         0.01
  YS02001647YS02001649        0.80      0.80      0.96      0.01         0.01
  YS02001649YS02001757        0.95      0.96      1.04      0.06         0.10
  YS02001652YS02001649        0.75      0.75      0.96      0.01         0.01
  YS02001655YS02001652        0.46      0.46      0.72      0.01         0.01
  YS02001658YS02001655        0.19      0.19      0.46      0.01         0.01
  YS02001661YS02001658        0.01      0.01      0.19      0.01         0.01
  YS02001664YS02001661        0.01      0.01      0.02      0.01         0.01
  YS02001745YS02001748        0.01      0.01      0.04      0.01         0.01
  YS02001748YS02001751        0.15      0.15      0.29      0.01         0.01
  YS02001751YS02001754        0.29      0.29      0.58      0.01         0.01
  YS02001754YS02001757        0.64      0.64      1.04      0.01         0.01
  YS02001757CaochengTiaoxuchi        0.97      1.04      2.21      0.39         0.29
  YS02001759YS02001757        0.93      0.93      1.04      0.01         0.02
  YS02001762YS02001759        0.88      0.88      0.93      0.01         0.02
  YS02001765YS02001762        0.83      0.83      0.88      0.01         0.01
  YS02001767YS02001765        0.79      0.79      0.83      0.01         0.05
  YS02001770YS02001767        0.78      0.78      0.79      0.58         0.54
  YS02001774YS02001770        0.75      0.75      0.86      0.01         0.01
  YS02001779YS02001774        0.56      0.56      0.86      0.01         0.01
  YS02001783YS02001784        0.57      0.59      0.57      0.75         0.57
  YS02001784YS02001785        0.46      0.57      0.46      1.05         0.46
  YS02001786YS02001788        0.01      0.46      0.01      0.87         0.01
  YS02001790YS02001791        0.01      0.01      0.01      0.55         0.01
  YS02001793JiankangQianchi        0.01      0.01      6.91      0.01         0.01
  YS02001882YS02001884        0.53      0.53      0.54      0.01         0.01
  YS02001884YS02001887        0.57      0.57      0.58      0.01         0.01
  YS02001887YS02001890        0.60      0.60      0.61      0.10         0.01
  YS02001890YS02001895        0.52      0.52      0.63      0.01         0.01
  YS02001895YS02001898        0.51      0.51      0.52      0.01         0.01
  YS02001898YS02001901        0.52      0.52      0.57      0.01         0.01
  YS02001901YS02001904        0.56      0.56      0.57      0.01         0.01
  YS02001904YS02001907        0.56      0.56      0.84      0.01         0.01
  YS02001907YS02006553        1.06      1.06      1.15      0.01         0.01
  YS02001910YS02001907        0.63      0.63      0.81      0.01         0.01
  YS02001915YS02001910        0.53      0.53      0.63      0.01         0.01
  YS02001918YS02001915        0.44      0.44      0.53      0.01         0.01
  YS02001920YS02001918        0.44      0.44      0.46      0.01         0.01
  YS02001923YS02001920        0.39      0.39      0.46      0.01         0.01
  YS02001926YS02001923        0.02      0.02      0.04      0.01         0.01
  YS02001929YS02001926        0.01      0.01      0.04      0.01         0.01
  YS02006553YS02006556        0.72      0.72      0.84      0.01         0.01
  YS02006556YS02006558        0.77      0.77      0.87      0.01         0.01
  YS02006558YS02006561        0.48      0.71      0.48      0.99         0.48
  YS02006561YS02001783        0.40      0.40      0.59      0.01         0.01
  YS02163301YS02001633        1.09      1.09      1.12      0.01         0.01
  YS02163601YS02164001        1.06      1.06      1.14      0.04         0.01
  YS02164001YS02001641        1.06      1.06      1.06      0.88         0.82
  YSB1154YSB6556              0.80      0.80      1.00      0.01         0.01
  YSB1171HS02004479           0.70      0.70      1.01      0.01         0.01
  YSB1174YSB1171              0.88      0.88      1.35      0.01         0.01
  YSB6556YSB1171              0.80      0.80      1.58      0.01         0.01
  
  
  ***************
  Pumping Summary
  ***************
  
  ---------------------------------------------------------------------------------------------------------
                                                  Min       Avg       Max     Total     Power    % Time Off
                        Percent   Number of      Flow      Flow      Flow    Volume     Usage    Pump Curve
  Pump                 Utilized   Start-Ups       LPS       LPS       LPS  10^6 ltr     Kw-hr    Low   High
  ---------------------------------------------------------------------------------------------------------
  CC-R1                   20.07           8      0.00    683.00    683.00     3.947     74.54    0.0    5.8
  CC-R2                   14.80           5      0.00    683.00    683.00     2.912     55.47    0.0    7.4
  CC-S1                   47.57          22      0.00    200.00    200.00     2.740     18.27    0.0    0.0
  CC-S2                   49.33          18      0.00    200.00    200.00     2.841     18.95    0.0    0.0
  JK-R1                    6.78          20      0.00   1000.00   1000.00     1.953     19.16    0.0    0.0
  JK-R2                    5.33          22      0.00   1000.00   1000.00     1.535     13.51    0.0    0.0
  JK-S                    12.39          32      0.00    300.00    300.00     1.071     18.79    0.0    0.0
  XR-1                    97.91           2      0.00     95.00     95.00     2.679      9.63    0.0    0.0
  XR-2                    93.94           2      0.00     95.00     95.00     2.570      8.78    0.0    0.0
  XR-3                     0.00           1      0.00     95.00     95.00     0.000      0.00    0.0    0.0
  XR-4                     0.00           1      0.00     95.00     95.00     0.000      0.00    0.0    0.0
  

  Analysis begun on:  Mon Feb 27 13:40:36 2023
  Analysis ended on:  Mon Feb 27 13:40:40 2023
  Total elapsed time: 00:00:04