
  OWA STORM WATER MANAGEMENT MODEL - VERSION v5.1.14 (OWA 2023-01-25)
  --------------------------------------------------------------

  WARNING 04: minimum elevation drop used for Conduit WS02004404WS02004405
  WARNING 03: negative offset ignored for Link YS02001904YS02001907
  
  *********************************************************
  NOTE: The summary statistics displayed in this report are
  based on results found at every computational time step,  
  not just on results from each reporting time step.
  *********************************************************
  
  ****************
  Analysis Options
  ****************
  Flow Units ............... LPS
  Process Models:
    Rainfall/Runoff ........ YES
    RDII ................... NO
    Snowmelt ............... NO
    Groundwater ............ NO
    Flow Routing ........... YES
    Ponding Allowed ........ NO
    Water Quality .......... NO
  Infiltration Method ...... HORTON
  Flow Routing Method ...... DYNWAVE
  Surcharge Method ......... EXTRAN
  Starting Date ............ 08/28/2015 08:00:00
  Ending Date .............. 08/28/2015 16:00:00
  Antecedent Dry Days ...... 8.0
  Report Time Step ......... 00:01:00
  Wet Time Step ............ 00:01:00
  Dry Time Step ............ 00:01:00
  Routing Time Step ........ 30.00 sec
  Variable Time Step ....... YES
  Maximum Trials ........... 8
  Number of Threads ........ 4
  Head Tolerance ........... 0.001500 m
  
  
  **************************        Volume         Depth
  Runoff Quantity Continuity     hectare-m            mm
  **************************     ---------       -------
  Total Precipitation ......         3.847        63.505
  Evaporation Loss .........         0.000         0.000
  Infiltration Loss ........         0.242         4.001
  Surface Runoff ...........         3.544        58.509
  Final Storage ............         0.061         1.007
  Continuity Error (%) .....        -0.018
  
  
  **************************        Volume        Volume
  Flow Routing Continuity        hectare-m      10^6 ltr
  **************************     ---------     ---------
  Dry Weather Inflow .......         0.630         6.296
  Wet Weather Inflow .......         3.544        35.444
  Groundwater Inflow .......         0.000         0.000
  RDII Inflow ..............         0.000         0.000
  External Inflow ..........         0.105         1.045
  External Outflow .........         2.530        25.301
  Flooding Loss ............         1.742        17.420
  Evaporation Loss .........         0.000         0.000
  Exfiltration Loss ........         0.000         0.000
  Initial Stored Volume ....         0.303         3.031
  Final Stored Volume ......         0.323         3.226
  Continuity Error (%) .....        -0.288
  
  
  *************************
  Highest Continuity Errors
  *************************
  Node YS02001884 (5.09%)
  Node YS02001583 (-3.92%)
  Node HS02004842 (1.73%)
  Node WS02006256 (-1.32%)
  
  
  ***************************
  Time-Step Critical Elements
  ***************************
  Link WS02006252WS02006251 (25.61%)
  Link WS02006280WS02006229 (23.62%)
  Link WS02006238WS02006235 (17.89%)
  Link WS02004404WS02004405 (9.58%)
  Link YS02001791YS02001793 (6.52%)
  
  
  ********************************
  Highest Flow Instability Indexes
  ********************************
  Link WS02006113WS02006111 (46)
  Link WS02006238WS02006235 (22)
  Link WS02006256WS02006235 (21)
  Link WS02006229WS02006228 (20)
  Link WS02006111WS02006112 (20)
  
  
  *************************
  Routing Time Step Summary
  *************************
  Minimum Time Step           :     0.01 sec
  Average Time Step           :     1.91 sec
  Maximum Time Step           :     6.46 sec
  Percent in Steady State     :    -0.00
  Average Iterations per Step :     3.47
  Percent Not Converging      :    14.72
  
  
  ***************************
  Subcatchment Runoff Summary
  ***************************
  
  ------------------------------------------------------------------------------------------------------------------------------
                            Total      Total      Total      Total     Imperv       Perv      Total       Total     Peak  Runoff
                           Precip      Runon       Evap      Infil     Runoff     Runoff     Runoff      Runoff   Runoff   Coeff
  Subcatchment                 mm         mm         mm         mm         mm         mm         mm    10^6 ltr      LPS
  ------------------------------------------------------------------------------------------------------------------------------
  sub0                      63.51       0.00       0.00       1.00      57.81       3.45      61.26        0.05    34.78   0.965
  sub1                      63.51       0.00       0.00       1.71      55.27       5.28      60.55        0.40   240.95   0.953
  sub10                     63.51       0.00       0.00       1.20      57.14       3.88      61.02        0.67   408.25   0.961
  sub11                     63.51       0.00       0.00       1.18      57.16       3.90      61.06        0.71   450.25   0.961
  sub12                     63.51       0.00       0.00       1.93      54.07       6.33      60.40        0.53   360.26   0.951
  sub14                     63.51       0.00       0.00       1.35      56.53       4.36      60.90        0.58   359.43   0.959
  sub15                     63.51       0.00       0.00       5.33      43.48      13.73      57.21        0.98   569.52   0.901
  sub16                     63.51       0.00       0.00       5.50      41.64      15.46      57.10        0.60   377.91   0.899
  sub17                     63.51       0.00       0.00       5.36      42.26      14.97      57.22        0.49   306.86   0.901
  sub2                      63.51       0.00       0.00       7.61      39.10      15.88      54.99        0.51   253.78   0.866
  sub22                     63.51       0.00       0.00       8.08      35.42      19.23      54.65        3.45  1912.57   0.861
  sub23                     63.51       0.00       0.00       6.58      39.15      16.92      56.07        2.67  1569.44   0.883
  sub3                      63.51       0.00       0.00       8.27      39.06      15.23      54.29        1.22   552.07   0.855
  sub4                      63.51       0.00       0.00       1.91      55.10       5.07      60.18        1.26   606.27   0.948
  sub5                      63.51       0.00       0.00       1.05      57.76       3.40      61.15        0.69   414.18   0.963
  sub60                     63.51       0.00       0.00       1.82      54.68       5.81      60.49        0.79   510.85   0.952
  sub61                     63.51       0.00       0.00       2.63      51.58       8.16      59.74        1.10   710.19   0.941
  sub62                     63.51       0.00       0.00       1.21      57.14       3.87      61.01        1.67  1003.62   0.961
  sub63                     63.51       0.00       0.00       4.88      44.12      13.54      57.66        1.31   804.09   0.908
  sub64                     63.51       0.00       0.00       2.46      52.77       7.06      59.84        1.44   828.04   0.942
  sub65                     63.51       0.00       0.00       2.13      53.99       6.13      60.12        1.66   927.49   0.947
  sub66                     63.51       0.00       0.00       6.06      44.01      12.36      56.37        2.63  1238.22   0.888
  sub67                     63.51       0.00       0.00       1.16      57.18       3.92      61.10        1.14   765.51   0.962
  sub68                     63.51       0.00       0.00       2.18      53.43       6.71      60.14        1.65  1024.82   0.947
  sub69                     63.51       0.00       0.00       1.96      53.87       7.57      61.44        2.27  1233.28   0.967
  sub7                      63.51       0.00       0.00       1.33      56.55       4.39      60.93        0.21   133.20   0.959
  sub70                     63.51       0.00       0.00       6.54      41.75      15.05      56.80        1.64   697.01   0.894
  sub71                     63.51       0.00       0.00       1.24      57.10       3.84      60.93        1.59   895.46   0.960
  sub72                     63.51       0.00       0.00       1.11      57.65       3.34      60.99        0.84   435.69   0.960
  sub8                      63.51       0.00       0.00       1.35      56.54       4.37      60.91        0.39   244.47   0.959
  sub9                      63.51       0.00       0.00       1.35      56.53       4.37      60.90        0.29   182.70   0.959
  
  
  ******************
  Node Depth Summary
  ******************
  
  ---------------------------------------------------------------------------------
                                 Average  Maximum  Maximum  Time of Max    Reported
                                   Depth    Depth      HGL   Occurrence   Max Depth
  Node                 Type       Meters   Meters   Meters  days hr:min      Meters
  ---------------------------------------------------------------------------------
  HS02004478           JUNCTION     0.20     1.59    10.81     0  02:12        1.58
  HS02004479           JUNCTION     0.27     1.69    10.89     0  02:06        1.67
  HS02004480           JUNCTION     0.24     1.66    10.90     0  02:06        1.64
  HS02004770           JUNCTION     0.25     1.42    11.25     0  02:03        1.42
  HS02004777           JUNCTION     0.27     1.48    11.28     0  02:03        1.48
  HS02004785           JUNCTION     0.17     1.49    11.39     0  02:03        1.37
  HS02004788           JUNCTION     0.14     1.42    11.32     0  02:03        1.39
  HS02004792           JUNCTION     0.19     1.60    11.12     0  02:03        1.60
  HS02004799           JUNCTION     0.30     1.76    10.97     0  02:06        1.76
  HS02004802           JUNCTION     0.30     1.80    10.93     0  02:12        1.80
  HS02004807           JUNCTION     0.27     1.92    11.09     0  02:11        1.92
  HS02004817           JUNCTION     0.57     2.43    11.28     0  02:06        2.38
  HS02004824           JUNCTION     0.15     2.01    11.41     0  02:06        1.95
  HS02004830           JUNCTION     0.15     2.03    11.50     0  02:05        2.03
  HS02004837           JUNCTION     0.13     2.04    11.62     0  02:05        2.04
  HS02004842           JUNCTION     0.42     2.22    11.49     0  02:06        2.12
  HS02004848           JUNCTION     0.11     2.07    11.67     0  02:06        1.80
  HS02004852           JUNCTION     0.11     2.12    11.63     0  02:06        1.86
  HS02004856           JUNCTION     0.17     2.07    11.50     0  02:06        1.92
  HS02004862           JUNCTION     0.13     2.00    11.38     0  02:06        1.91
  HS02004870           JUNCTION     0.12     2.00    11.29     0  02:06        1.90
  HS02004876           JUNCTION     0.17     2.00    11.03     0  02:12        1.99
  HS02004881           JUNCTION     0.11     1.93    10.96     0  02:06        1.93
  HS02004901           JUNCTION     0.25     1.42    11.24     0  02:03        1.42
  WS02001211           JUNCTION     0.63     0.81     5.65     0  02:17        0.81
  WS02001212           JUNCTION     0.38     0.57     5.64     0  02:17        0.57
  WS02001213           JUNCTION     0.60     0.87     5.63     0  02:16        0.87
  WS02003059           JUNCTION     0.67     0.94     5.63     0  02:16        0.94
  WS02003060           JUNCTION     0.39     0.69     5.62     0  02:14        0.69
  WS02003066           JUNCTION     0.24     0.46     6.01     0  02:14        0.46
  WS02003067           JUNCTION     0.58     0.89     6.21     0  02:13        0.89
  WS02003069           JUNCTION     0.44     0.78     5.36     0  02:15        0.78
  WS02003072           JUNCTION     0.50     0.81     5.18     0  02:15        0.81
  WS02003073           JUNCTION     0.30     0.52     4.58     0  02:16        0.52
  WS02004138           JUNCTION     0.13     0.14     7.39     0  00:32        0.14
  WS02004139           JUNCTION     0.57     0.75     5.66     0  02:17        0.75
  WS02004401           JUNCTION     0.80     1.88     7.88     0  02:12        1.87
  WS02004402           JUNCTION     0.81     1.82     7.78     0  02:13        1.81
  WS02004403           JUNCTION     0.82     1.74     7.67     0  02:13        1.73
  WS02004404           JUNCTION     0.88     1.75     7.60     0  02:12        1.74
  WS02004405           JUNCTION     0.87     1.70     7.55     0  02:13        1.69
  WS02004406           JUNCTION     0.87     1.58     7.41     0  02:13        1.58
  WS02004407           JUNCTION     0.28     0.94     7.25     0  02:13        0.94
  WS02004409           JUNCTION     0.57     1.40     7.17     0  02:13        1.39
  WS02004410           JUNCTION     0.58     1.30     7.02     0  02:12        1.30
  WS02004411           JUNCTION     0.58     1.21     6.89     0  02:14        1.21
  WS02004412           JUNCTION     0.58     1.11     6.75     0  02:13        1.11
  WS02004413           JUNCTION     0.72     1.15     6.62     0  02:13        1.15
  WS02006109           JUNCTION     1.00     2.64     9.26     0  02:04        2.64
  WS02006110           JUNCTION     0.94     2.40     8.98     0  02:12        2.40
  WS02006111           JUNCTION     0.42     1.75     8.46     0  02:12        1.74
  WS02006112           JUNCTION     1.01     2.40     8.28     0  02:12        2.38
  WS02006113           JUNCTION     0.51     1.83     8.72     0  02:13        1.83
  WS02006115           JUNCTION     0.72     1.98     8.12     0  02:12        1.98
  WS02006116           JUNCTION     0.79     1.97     8.01     0  02:12        1.97
  WS02006228           JUNCTION     1.06     3.03     9.68     0  02:17        3.02
  WS02006229           JUNCTION     1.06     3.22     9.92     0  02:16        3.21
  WS02006230           JUNCTION     1.01     2.65     9.39     0  02:00        2.65
  WS02006231           JUNCTION     0.74     2.20     9.33     0  02:33        2.20
  WS02006232           JUNCTION     0.84     2.18     9.22     0  02:00        2.18
  WS02006234           JUNCTION     0.74     1.96     9.12     0  01:55        1.96
  WS02006235           JUNCTION     0.76     2.00     9.16     0  01:55        1.96
  WS02006238           JUNCTION     0.78     2.02     9.17     0  01:55        1.96
  WS02006239           JUNCTION     0.73     1.86     9.07     0  01:55        1.79
  WS02006240           JUNCTION     0.68     1.71     9.00     0  04:30        1.64
  WS02006242           JUNCTION     0.74     1.55     8.82     0  01:45        1.55
  WS02006243           JUNCTION     0.63     1.38     8.80     0  04:30        1.38
  WS02006245           JUNCTION     0.61     1.29     8.78     0  04:30        1.27
  WS02006247           JUNCTION     0.63     1.26     8.76     0  02:33        1.26
  WS02006248           JUNCTION     0.58     1.10     8.69     0  01:42        1.10
  WS02006249           JUNCTION     0.60     1.09     8.69     0  01:42        1.09
  WS02006251           JUNCTION     0.70     2.21     9.88     0  02:06        2.21
  WS02006252           JUNCTION     0.48     1.50     9.74     0  00:00        1.50
  WS02006253           JUNCTION     0.76     3.22    10.86     0  02:06        3.22
  WS02006256           JUNCTION     1.08     2.35     9.28     0  00:00        2.35
  WS02006280           JUNCTION     0.26     1.74    10.01     0  02:16        1.73
  WS02006284           JUNCTION     0.52     1.95    10.35     0  02:12        1.95
  WS02006287           JUNCTION     0.26     1.74    10.70     0  02:12        1.74
  WSF200               JUNCTION     0.24     0.52     5.76     0  02:14        0.52
  YS02001580           JUNCTION     0.07     1.05     9.59     0  02:02        0.78
  YS02001583           JUNCTION     0.10     1.07     9.57     0  02:02        0.82
  YS02001586           JUNCTION     0.17     1.13     9.30     0  02:02        1.13
  YS02001590           JUNCTION     0.26     1.40     9.26     0  02:02        1.40
  YS02001593           JUNCTION     0.20     1.34     9.20     0  02:02        1.31
  YS02001596           JUNCTION     0.27     1.68     9.10     0  02:02        1.67
  YS02001600           JUNCTION     0.33     1.87     9.00     0  02:02        1.86
  YS02001601           JUNCTION     0.51     2.06     8.90     0  02:02        2.06
  YS02001602           JUNCTION     0.43     1.87     8.77     0  02:02        1.87
  YS02001605           JUNCTION     0.40     1.78     8.68     0  02:11        1.78
  YS02001607           JUNCTION     0.40     1.68     8.52     0  02:17        1.68
  YS02001610           JUNCTION     0.44     1.68     8.48     0  02:06        1.68
  YS02001613           JUNCTION     0.40     1.67     8.51     0  02:06        1.67
  YS02001616           JUNCTION     0.33     1.61     8.52     0  02:06        1.61
  YS02001619           JUNCTION     0.31     1.61     8.54     0  02:06        1.61
  YS02001622           JUNCTION     0.30     1.59     8.49     0  02:06        1.59
  YS02001625           JUNCTION     0.56     1.78     8.38     0  02:06        1.78
  YS02001629           JUNCTION     0.41     1.85     8.40     0  02:02        1.85
  YS02001633           JUNCTION     0.49     2.04     8.49     0  02:12        2.04
  YS02001641           JUNCTION     0.48     1.95     8.39     0  02:08        1.94
  YS02001644           JUNCTION     0.47     1.92     8.35     0  02:08        1.92
  YS02001647           JUNCTION     0.27     1.76     8.37     0  02:11        1.74
  YS02001649           JUNCTION     0.32     2.00     8.39     0  02:11        1.95
  YS02001652           JUNCTION     0.22     1.87     8.46     0  02:11        1.80
  YS02001655           JUNCTION     0.17     1.68     8.53     0  02:11        1.59
  YS02001658           JUNCTION     0.12     1.47     8.62     0  02:08        1.34
  YS02001661           JUNCTION     0.14     1.34     8.74     0  02:11        1.11
  YS02001664           JUNCTION     0.05     0.52     8.44     0  02:12        0.50
  YS02001745           JUNCTION     0.06     0.80     8.32     0  02:12        0.78
  YS02001748           JUNCTION     0.11     1.49     8.57     0  02:09        1.23
  YS02001751           JUNCTION     0.14     1.52     8.39     0  02:09        1.43
  YS02001754           JUNCTION     0.19     1.68     8.29     0  02:12        1.68
  YS02001757           JUNCTION     0.34     2.02     8.28     0  02:12        1.99
  YS02001759           JUNCTION     0.29     2.05     8.42     0  02:12        2.05
  YS02001762           JUNCTION     0.28     2.06     8.46     0  02:12        2.06
  YS02001765           JUNCTION     0.26     2.03     8.48     0  02:12        2.03
  YS02001767           JUNCTION     0.26     1.99     8.48     0  02:12        1.99
  YS02001770           JUNCTION     0.27     1.95     8.45     0  02:12        1.95
  YS02001774           JUNCTION     0.33     2.00     8.42     0  02:12        1.98
  YS02001779           JUNCTION     0.17     1.68     8.37     0  02:06        1.68
  YS02001783           JUNCTION     0.21     1.26     7.40     0  02:07        1.24
  YS02001784           JUNCTION     0.23     1.13     7.20     0  02:07        1.12
  YS02001786           JUNCTION     0.19     0.89     6.92     0  02:07        0.87
  YS02001788           JUNCTION     0.14     0.62     6.60     0  02:12        0.62
  YS02001790           JUNCTION     0.17     0.73     6.37     0  02:10        0.72
  YS02001791           JUNCTION     0.11     0.44     5.91     0  02:13        0.43
  YS02001793           JUNCTION     0.06     0.31     5.14     0  02:15        0.30
  YS02001882           JUNCTION     0.27     1.66     8.38     0  02:12        1.66
  YS02001884           JUNCTION     0.36     1.76     8.38     0  02:12        1.76
  YS02001887           JUNCTION     0.43     1.85     8.39     0  02:12        1.85
  YS02001890           JUNCTION     0.46     1.81     8.32     0  02:07        1.81
  YS02001895           JUNCTION     0.24     1.57     8.32     0  02:07        1.57
  YS02001898           JUNCTION     0.25     1.57     8.31     0  02:07        1.56
  YS02001901           JUNCTION     0.36     1.68     8.29     0  02:07        1.67
  YS02001904           JUNCTION     0.34     1.64     8.27     0  02:07        1.63
  YS02001907           JUNCTION     0.65     1.96     8.25     0  02:07        1.96
  YS02001910           JUNCTION     0.45     1.98     8.49     0  02:07        1.95
  YS02001915           JUNCTION     0.27     1.93     8.65     0  02:07        1.90
  YS02001918           JUNCTION     0.14     1.81     8.88     0  02:07        1.81
  YS02001920           JUNCTION     0.22     2.11     9.12     0  02:07        1.95
  YS02001923           JUNCTION     0.10     2.02     9.28     0  02:07        1.77
  YS02001926           JUNCTION     0.14     1.90     9.35     0  02:07        1.63
  YS02001929           JUNCTION     0.08     1.78     9.47     0  02:07        1.41
  YS02006553           JUNCTION     0.65     1.98     8.26     0  02:12        1.98
  YS02006556           JUNCTION     0.63     1.98     8.29     0  02:12        1.98
  YS02006558           JUNCTION     0.67     2.03     8.30     0  02:12        2.03
  YS02006561           JUNCTION     0.13     0.93     7.59     0  02:07        0.90
  YS02163301           JUNCTION     0.44     1.93     8.44     0  02:08        1.92
  YS02163601           JUNCTION     0.53     2.04     8.44     0  02:08        2.02
  YS02164001           JUNCTION     0.46     1.96     8.41     0  02:08        1.93
  YSB1154              JUNCTION     0.40     2.00    11.06     0  02:12        2.00
  YSB1171              JUNCTION     0.55     1.95    10.85     0  02:06        1.95
  YSB1174              JUNCTION     0.36     1.85    10.96     0  02:12        1.85
  YSB6556              JUNCTION     0.30     1.78    10.95     0  02:12        1.78
  CC-1                 OUTFALL      0.00     0.00     0.00     0  00:00        0.00
  CC-2                 OUTFALL      0.00     0.00     0.00     0  00:00        0.00
  JK-1                 OUTFALL      0.00     0.00     0.00     0  00:00        0.00
  JK-2                 OUTFALL      0.00     0.00     0.00     0  00:00        0.00
  WSC                  OUTFALL      0.30     0.52     1.19     0  02:17        0.52
  CC-storage           STORAGE      0.82     1.74     7.24     0  02:38        1.74
  JK-storage           STORAGE      1.40     4.23     5.03     0  02:25        4.20
  XR-storage           STORAGE      7.92     9.26     7.26     0  08:00        9.26
  
  
  *******************
  Node Inflow Summary
  *******************
  
  -------------------------------------------------------------------------------------------------
                                  Maximum  Maximum                  Lateral       Total        Flow
                                  Lateral    Total  Time of Max      Inflow      Inflow     Balance
                                   Inflow   Inflow   Occurrence      Volume      Volume       Error
  Node                 Type           LPS      LPS  days hr:min    10^6 ltr    10^6 ltr     Percent
  -------------------------------------------------------------------------------------------------
  HS02004478           JUNCTION      0.00  2306.07     0  02:12           0        8.75      -0.016
  HS02004479           JUNCTION      0.00   391.11     0  02:07           0       0.855       0.089
  HS02004480           JUNCTION      0.00  2080.00     0  02:05           0         6.5       0.040
  HS02004770           JUNCTION   1569.44  1569.44     0  02:14        2.67        2.91       0.103
  HS02004777           JUNCTION      0.03   721.92     0  02:03    0.000864         1.9       0.273
  HS02004785           JUNCTION      0.15   735.21     0  02:03     0.00432         1.9       0.023
  HS02004788           JUNCTION    571.19   918.43     0  02:03        1.03        2.93      -0.007
  HS02004792           JUNCTION   1912.85  2724.97     0  02:14        3.46        6.39       0.009
  HS02004799           JUNCTION    359.43  1723.32     0  02:05        0.58        5.84       0.047
  HS02004802           JUNCTION      0.00  1233.27     0  02:16           0        2.37       0.166
  HS02004807           JUNCTION    450.25  1473.87     0  02:14        0.71        2.46       0.167
  HS02004817           JUNCTION      0.60  1029.98     0  02:14      0.0173        1.81       0.915
  HS02004824           JUNCTION    606.32  1028.66     0  02:14        1.26        1.98       0.021
  HS02004830           JUNCTION      0.15   590.52     0  02:04     0.00432       0.918       0.093
  HS02004837           JUNCTION    414.60   779.93     0  02:05       0.856        1.26       0.023
  HS02004842           JUNCTION      0.00   848.21     0  02:05           0       0.742       1.765
  HS02004848           JUNCTION    552.07  1065.26     0  02:05        1.22        1.79      -0.012
  HS02004852           JUNCTION      0.00  1010.91     0  02:06           0        1.64      -0.031
  HS02004856           JUNCTION    182.70  1047.53     0  02:06       0.293        1.93       0.094
  HS02004862           JUNCTION    253.98  1137.80     0  02:06       0.518        2.45       0.000
  HS02004870           JUNCTION    244.47  1219.95     0  02:13       0.389        2.84      -0.000
  HS02004876           JUNCTION    240.95  1458.50     0  02:13       0.403        3.24       0.033
  HS02004881           JUNCTION    133.20  1592.46     0  02:13       0.205        3.45       0.006
  HS02004901           JUNCTION    377.91   639.41     0  02:13       0.598       0.935       0.186
  WS02001211           JUNCTION      7.35   204.57     0  03:12       0.212        5.44       0.613
  WS02001212           JUNCTION      0.00   210.17     0  03:12           0        5.41       0.290
  WS02001213           JUNCTION      0.00   212.74     0  03:13           0        5.39       0.335
  WS02003059           JUNCTION      0.00   217.07     0  03:11           0        5.38       0.598
  WS02003060           JUNCTION     16.53  1510.02     0  02:14       0.476        16.5       0.091
  WS02003066           JUNCTION      0.00  1310.44     0  02:14           0        10.6       0.016
  WS02003067           JUNCTION      0.00  1309.92     0  02:14           0        10.6       0.043
  WS02003069           JUNCTION      0.32  1510.51     0  02:15     0.00922        16.4       0.097
  WS02003072           JUNCTION      0.00  1510.45     0  02:15           0        16.4       0.130
  WS02003073           JUNCTION      1.82  1512.50     0  02:16      0.0524        16.5       0.136
  WS02004138           JUNCTION      0.00   380.00     0  00:00           0        5.25       0.055
  WS02004139           JUNCTION      0.32   190.32     0  00:32     0.00924        5.26       0.508
  WS02004401           JUNCTION      0.00  1310.33     0  02:13           0        10.7       0.103
  WS02004402           JUNCTION      0.00  1311.48     0  02:13           0        10.7       0.103
  WS02004403           JUNCTION      0.00  1310.57     0  02:12           0        10.7       0.099
  WS02004404           JUNCTION      0.16  1310.32     0  02:13     0.00467        10.7       0.085
  WS02004405           JUNCTION      0.04  1311.46     0  02:13      0.0011        10.7       0.119
  WS02004406           JUNCTION      0.00  1310.80     0  02:13           0        10.7       0.201
  WS02004407           JUNCTION      0.00  1311.04     0  02:13           0        10.7       0.016
  WS02004409           JUNCTION      0.00  1310.09     0  02:14           0        10.7       0.033
  WS02004410           JUNCTION      0.00  1310.03     0  02:14           0        10.7       0.050
  WS02004411           JUNCTION      0.00  1310.45     0  02:14           0        10.7       0.062
  WS02004412           JUNCTION      0.00  1309.89     0  02:13           0        10.7       0.080
  WS02004413           JUNCTION      0.00  1310.01     0  02:14           0        10.6       0.141
  WS02006109           JUNCTION      1.23  1289.24     0  02:12      0.0354        10.6       0.084
  WS02006110           JUNCTION      0.00  1124.71     0  02:30           0        10.3       0.075
  WS02006111           JUNCTION      0.00  1125.02     0  02:30           0        10.3       0.004
  WS02006112           JUNCTION    306.86  1309.69     0  02:13       0.491        10.8       0.173
  WS02006113           JUNCTION      0.00  1124.91     0  02:30           0        10.3       0.026
  WS02006115           JUNCTION      0.00  1309.57     0  02:13           0        10.8       0.066
  WS02006116           JUNCTION      0.00  1310.03     0  02:12           0        10.7       0.044
  WS02006228           JUNCTION      0.00  1288.36     0  02:12           0        10.5       0.041
  WS02006229           JUNCTION      0.00  2305.20     0  02:12           0        12.9       0.069
  WS02006230           JUNCTION     10.28  1027.01     0  02:12       0.296        6.56       0.122
  WS02006231           JUNCTION      0.00   561.76     0  04:00           0        5.32      -0.057
  WS02006232           JUNCTION      0.00   560.90     0  04:00           0        5.32       0.130
  WS02006234           JUNCTION      0.00   557.42     0  04:00           0        5.31      -0.149
  WS02006235           JUNCTION      0.00   564.45     0  04:40           0        5.37       0.149
  WS02006238           JUNCTION      0.00   430.79     0  04:11           0        5.05      -0.151
  WS02006239           JUNCTION      0.00   430.18     0  04:11           0           5      -0.253
  WS02006240           JUNCTION      0.00   429.42     0  04:10           0        4.99       0.012
  WS02006242           JUNCTION      0.00   432.40     0  04:10           0        4.98       0.011
  WS02006243           JUNCTION      0.00   433.46     0  04:10           0        4.59      -0.250
  WS02006245           JUNCTION      0.00   432.71     0  04:10           0         4.6       0.284
  WS02006247           JUNCTION      0.00   431.70     0  04:10           0         4.6      -0.011
  WS02006248           JUNCTION      0.00   430.54     0  04:05           0        4.87      -0.041
  WS02006249           JUNCTION      0.00  1361.36     0  02:13           0        8.12       0.088
  WS02006251           JUNCTION      0.08  1628.80     0  02:13     0.00222        8.31      -0.003
  WS02006252           JUNCTION      0.00   668.02     0  02:13           0        5.27      -0.276
  WS02006253           JUNCTION     34.78  1628.05     0  02:13      0.0496        3.58       0.009
  WS02006256           JUNCTION      0.00   300.00     0  00:00           0        1.49      -1.302
  WS02006280           JUNCTION      0.00  2304.72     0  02:12           0        8.73       0.008
  WS02006284           JUNCTION      0.10  2304.40     0  02:12     0.00275        8.73      -0.006
  WS02006287           JUNCTION      0.00  2304.52     0  02:12           0        8.73       0.012
  WSF200               JUNCTION      0.00  1310.60     0  02:14           0        10.6       0.008
  YS02001580           JUNCTION      0.00    73.32     0  02:02           0     0.00401       1.222
  YS02001583           JUNCTION      0.00   138.79     0  02:02           0      0.0153      -3.769
  YS02001586           JUNCTION    697.01   697.17     0  02:15        1.64        1.65       0.070
  YS02001590           JUNCTION      0.00   318.33     0  02:17           0        1.32      -0.029
  YS02001593           JUNCTION      0.00   319.37     0  02:33           0        1.32       0.001
  YS02001596           JUNCTION      0.00   318.11     0  02:17           0        1.32      -0.009
  YS02001600           JUNCTION      0.00   318.39     0  02:17           0        1.32       0.008
  YS02001601           JUNCTION   1233.28  1550.95     0  02:14        2.27         3.6       0.023
  YS02001602           JUNCTION      0.00   502.81     0  02:01           0        2.28       0.017
  YS02001605           JUNCTION      0.00   502.89     0  02:01           0        2.16       0.018
  YS02001607           JUNCTION      0.00   502.83     0  02:01           0        2.16       0.083
  YS02001610           JUNCTION      0.00   666.02     0  02:15           0        2.34       0.093
  YS02001613           JUNCTION      0.00   500.38     0  02:01           0        1.89       0.083
  YS02001616           JUNCTION      0.00   507.06     0  02:02           0        1.89       0.015
  YS02001619           JUNCTION   1238.22  1238.22     0  02:15        2.63        4.34      -0.004
  YS02001622           JUNCTION      0.00   926.37     0  02:13           0        4.16      -0.002
  YS02001625           JUNCTION      0.00  1305.23     0  02:14           0        4.36       0.207
  YS02001629           JUNCTION      0.00   934.42     0  02:02           0        3.39       0.010
  YS02001633           JUNCTION    927.69  1333.05     0  02:05        1.66        4.84       0.066
  YS02001641           JUNCTION      0.00  1329.51     0  02:05           0        4.63       0.058
  YS02001644           JUNCTION    828.08  1700.02     0  02:05        1.44        6.06       0.054
  YS02001647           JUNCTION      0.00  1701.55     0  02:06           0        5.69       0.006
  YS02001649           JUNCTION      0.00  1902.71     0  02:05           0           7       0.002
  YS02001652           JUNCTION      0.00   831.20     0  02:13           0        1.31      -0.066
  YS02001655           JUNCTION      0.15   831.14     0  02:13     0.00443        1.31       0.027
  YS02001658           JUNCTION      0.00   830.73     0  02:13           0        1.31      -0.056
  YS02001661           JUNCTION      0.00   887.98     0  02:11           0        1.31      -0.009
  YS02001664           JUNCTION    804.09   804.09     0  02:14        1.31        1.31      -0.004
  YS02001745           JUNCTION    510.86   510.86     0  02:13       0.795       0.795       0.159
  YS02001748           JUNCTION      0.04   548.58     0  02:09      0.0013       0.795      -0.250
  YS02001751           JUNCTION      0.01   516.36     0  02:13    0.000317       0.802       0.104
  YS02001754           JUNCTION      0.26   517.29     0  02:13     0.00749       0.815      -0.139
  YS02001757           JUNCTION      0.00  3119.91     0  02:10           0        10.4       0.015
  YS02001759           JUNCTION    710.23  1293.90     0  02:12         1.1        2.63      -0.005
  YS02001762           JUNCTION      0.00   703.06     0  02:10           0        1.53       0.006
  YS02001765           JUNCTION      0.00   703.78     0  02:10           0        1.53       0.018
  YS02001767           JUNCTION      0.54   704.28     0  02:10      0.0154        1.53       0.003
  YS02001770           JUNCTION   1003.77  1003.77     0  02:14        1.68        1.72       0.002
  YS02001774           JUNCTION      0.00   468.18     0  02:14           0       0.216       0.471
  YS02001779           JUNCTION      0.01   469.27     0  02:14    0.000144       0.174      -0.216
  YS02001783           JUNCTION      0.00  1163.05     0  02:12           0        4.07       0.006
  YS02001784           JUNCTION      1.06  1164.72     0  02:12      0.0305         4.1       0.013
  YS02001786           JUNCTION      0.06  1164.44     0  02:12     0.00162         4.1       0.015
  YS02001788           JUNCTION      0.07  1165.85     0  02:12     0.00204         4.1       0.007
  YS02001790           JUNCTION      0.15  1177.34     0  02:12     0.00446         4.1       0.027
  YS02001791           JUNCTION      0.00  1291.15     0  02:13           0         4.1      -0.031
  YS02001793           JUNCTION      0.00  1253.54     0  02:12           0         4.1       0.006
  YS02001882           JUNCTION      0.00    27.20     0  02:04           0      0.0126       5.358
  YS02001884           JUNCTION      0.00    56.80     0  02:04           0      0.0483       5.363
  YS02001887           JUNCTION    765.96   765.96     0  02:13        1.15        1.18       0.388
  YS02001890           JUNCTION      0.00   765.96     0  02:13           0        1.14       0.450
  YS02001895           JUNCTION      0.00   519.06     0  02:17           0        1.07       0.149
  YS02001898           JUNCTION      0.00   517.90     0  02:17           0        1.06       0.032
  YS02001901           JUNCTION      0.00   517.63     0  02:16           0        1.07       0.311
  YS02001904           JUNCTION      0.00   517.58     0  02:16           0        1.07       0.264
  YS02001907           JUNCTION      0.00  1863.53     0  02:14           0        3.58       0.498
  YS02001910           JUNCTION      0.00  1347.51     0  02:14           0        2.51       0.283
  YS02001915           JUNCTION    895.48  1346.94     0  02:14        1.59        2.55       0.066
  YS02001918           JUNCTION      0.00   455.19     0  02:14           0       0.975       0.005
  YS02001920           JUNCTION      2.87   454.40     0  02:14      0.0827       0.961       0.094
  YS02001923           JUNCTION      0.04   450.51     0  02:14     0.00109       0.864      -0.018
  YS02001926           JUNCTION      0.05   450.47     0  02:14      0.0015       0.848       0.018
  YS02001929           JUNCTION    435.69   435.69     0  02:14       0.839       0.839      -0.103
  YS02006553           JUNCTION      0.00   800.61     0  02:29           0        2.43       0.487
  YS02006556           JUNCTION      0.00   800.92     0  02:29           0        2.44       0.336
  YS02006558           JUNCTION   1025.70  1163.68     0  02:12        1.68         4.1       0.087
  YS02006561           JUNCTION      0.00  1162.96     0  02:12           0        4.07       0.000
  YS02163301           JUNCTION      0.00   920.20     0  02:05           0        3.39       0.037
  YS02163601           JUNCTION      0.11  1332.38     0  02:05     0.00317        4.63       0.101
  YS02164001           JUNCTION      0.00  1331.60     0  02:05           0        4.63       0.045
  YSB1154              JUNCTION    414.18   414.18     0  02:14       0.693       0.694       0.212
  YSB1171              JUNCTION      0.00   995.76     0  02:14           0        1.32       0.483
  YSB1174              JUNCTION    360.26   360.26     0  02:13       0.528       0.528       0.236
  YSB6556              JUNCTION      0.00   414.12     0  02:14           0       0.694       0.167
  CC-1                 OUTFALL       0.00   683.00     0  00:00           0        3.57       0.000
  CC-2                 OUTFALL       0.00   683.00     0  00:00           0        2.56       0.000
  JK-1                 OUTFALL       0.00  1000.00     0  00:00           0        2.05       0.000
  JK-2                 OUTFALL       0.00  1000.00     0  00:00           0       0.683       0.000
  WSC                  OUTFALL       0.00  1513.08     0  02:17           0        16.4       0.000
  CC-storage           STORAGE       0.00  3118.39     0  02:10           0        12.7      -0.224
  JK-storage           STORAGE       0.00  1230.21     0  02:14           0        4.25      -0.394
  XR-storage           STORAGE     200.00   200.00     0  00:00        5.76        6.36       0.001
  
  
  **********************
  Node Surcharge Summary
  **********************
  
  Surcharging occurs when water rises above the top of the highest conduit.
  ---------------------------------------------------------------------
                                               Max. Height   Min. Depth
                                   Hours       Above Crown    Below Rim
  Node                 Type      Surcharged         Meters       Meters
  ---------------------------------------------------------------------
  HS02004478           JUNCTION        0.49          0.667        0.273
  HS02004479           JUNCTION        0.63          0.886        0.164
  HS02004480           JUNCTION        0.67          0.947        0.153
  HS02004770           JUNCTION        0.57          0.720        0.000
  HS02004777           JUNCTION        0.57          0.780        0.000
  HS02004785           JUNCTION        0.52          0.790        0.000
  HS02004788           JUNCTION        0.51          0.720        0.000
  HS02004792           JUNCTION        0.63          0.900        0.000
  HS02004799           JUNCTION        0.76          1.060        0.000
  HS02004802           JUNCTION        0.68          1.092        0.118
  HS02004807           JUNCTION        0.66          1.220        0.000
  HS02004817           JUNCTION        1.27          1.731        0.009
  HS02004824           JUNCTION        0.52          1.310        0.000
  HS02004830           JUNCTION        0.49          1.330        0.000
  HS02004837           JUNCTION        0.44          1.340        0.000
  HS02004842           JUNCTION        0.59          1.520        0.000
  HS02004848           JUNCTION        0.41          1.370        0.000
  HS02004852           JUNCTION        0.44          1.420        0.000
  HS02004856           JUNCTION        0.43          1.300        0.000
  HS02004862           JUNCTION        0.46          1.295        0.005
  HS02004870           JUNCTION        0.48          1.299        0.101
  HS02004876           JUNCTION        0.56          1.297        0.263
  HS02004881           JUNCTION        0.54          1.235        0.215
  HS02004901           JUNCTION        0.57          0.720        0.000
  WS02004401           JUNCTION        1.61          0.875        0.785
  WS02004402           JUNCTION        1.62          0.820        0.920
  WS02004403           JUNCTION        1.63          0.743        1.287
  WS02004404           JUNCTION        1.84          0.753        2.027
  WS02004405           JUNCTION        1.78          0.700        2.100
  WS02004406           JUNCTION        1.73          0.585        1.865
  WS02004409           JUNCTION        1.08          0.396        1.964
  WS02004410           JUNCTION        1.02          0.303        2.237
  WS02004411           JUNCTION        0.91          0.213        2.317
  WS02004412           JUNCTION        0.79          0.108        2.202
  WS02004413           JUNCTION        1.36          0.147        2.053
  WS02006109           JUNCTION        3.02          1.820        0.000
  WS02006110           JUNCTION        2.10          1.489        0.361
  WS02006111           JUNCTION        1.32          0.943        0.927
  WS02006112           JUNCTION        2.39          1.397        0.283
  WS02006113           JUNCTION        1.35          1.031        0.899
  WS02006115           JUNCTION        1.50          0.967        1.283
  WS02006116           JUNCTION        1.52          0.907        1.383
  WS02006228           JUNCTION        2.99          2.200        0.000
  WS02006229           JUNCTION        0.99          1.043        0.027
  WS02006230           JUNCTION        1.93          1.570        0.000
  WS02006231           JUNCTION        2.13          1.495        0.035
  WS02006232           JUNCTION        3.06          1.480        0.000
  WS02006234           JUNCTION        2.81          1.240        0.000
  WS02006235           JUNCTION        2.85          1.290        0.000
  WS02006238           JUNCTION        2.93          1.302        0.128
  WS02006239           JUNCTION        2.86          1.124        0.166
  WS02006240           JUNCTION        2.87          0.997        0.393
  WS02006242           JUNCTION        3.07          0.820        0.000
  WS02006243           JUNCTION        2.88          0.674        0.096
  WS02006245           JUNCTION        2.86          0.585        0.265
  WS02006247           JUNCTION        2.90          0.552        0.208
  WS02006248           JUNCTION        2.82          0.380        0.000
  WS02006249           JUNCTION        2.86          0.390        0.000
  WS02006251           JUNCTION        2.26          1.180        0.000
  WS02006252           JUNCTION        3.39          1.100        0.000
  WS02006253           JUNCTION        2.35          2.176        0.304
  WS02006256           JUNCTION        7.67          2.050        0.000
  WS02006280           JUNCTION        0.78          0.694        0.086
  WS02006284           JUNCTION        0.70          0.671        0.129
  WS02006287           JUNCTION        0.60          0.743        0.147
  YS02001580           JUNCTION        0.61          0.450        0.000
  YS02001583           JUNCTION        0.62          0.432        0.068
  YS02001586           JUNCTION        0.75          0.510        0.000
  YS02001590           JUNCTION        0.83          0.750        0.000
  YS02001593           JUNCTION        0.84          0.718        0.122
  YS02001596           JUNCTION        0.96          0.952        0.118
  YS02001600           JUNCTION        1.13          1.190        0.000
  YS02001601           JUNCTION        1.44          1.440        0.000
  YS02001602           JUNCTION        1.34          1.270        0.000
  YS02001605           JUNCTION        1.29          1.180        0.000
  YS02001607           JUNCTION        0.83          0.677        0.003
  YS02001610           JUNCTION        0.86          0.680        0.000
  YS02001613           JUNCTION        0.82          0.669        0.031
  YS02001616           JUNCTION        0.78          0.610        0.000
  YS02001619           JUNCTION        0.76          0.610        0.000
  YS02001622           JUNCTION        0.76          0.585        0.035
  YS02001625           JUNCTION        0.96          0.780        0.000
  YS02001629           JUNCTION        0.72          0.470        0.000
  YS02001633           JUNCTION        0.99          1.020        0.040
  YS02001641           JUNCTION        0.93          0.949        0.151
  YS02001644           JUNCTION        0.90          0.920        0.000
  YS02001647           JUNCTION        0.68          0.758        0.142
  YS02001649           JUNCTION        0.81          0.995        0.055
  YS02001652           JUNCTION        0.62          0.836        0.294
  YS02001655           JUNCTION        0.45          0.678        0.522
  YS02001658           JUNCTION        0.24          0.473        0.827
  YS02001661           JUNCTION        0.02          0.270        1.120
  YS02001748           JUNCTION        0.18          0.410        0.780
  YS02001751           JUNCTION        0.34          0.516        0.684
  YS02001754           JUNCTION        0.53          0.635        0.515
  YS02001757           JUNCTION        0.88          1.018        0.192
  YS02001759           JUNCTION        0.79          1.053        0.157
  YS02001762           JUNCTION        0.75          1.064        0.086
  YS02001765           JUNCTION        0.70          1.034        0.066
  YS02001767           JUNCTION        0.67          0.995        0.035
  YS02001770           JUNCTION        0.65          0.920        0.000
  YS02001774           JUNCTION        0.73          0.996        0.054
  YS02001779           JUNCTION        0.51          0.680        0.000
  YS02001783           JUNCTION        0.54          0.457        1.143
  YS02001784           JUNCTION        0.52          0.333        1.157
  YS02001786           JUNCTION        0.41          0.088        1.342
  YS02001882           JUNCTION        0.49          0.661        0.169
  YS02001884           JUNCTION        0.50          0.704        0.166
  YS02001887           JUNCTION        0.53          0.803        0.147
  YS02001890           JUNCTION        0.55          0.760        0.000
  YS02001895           JUNCTION        0.48          0.570        0.180
  YS02001898           JUNCTION        0.46          0.544        0.196
  YS02001901           JUNCTION        0.52          0.682        0.188
  YS02001904           JUNCTION        0.51          0.640        0.210
  YS02001907           JUNCTION        0.78          0.950        0.000
  YS02001910           JUNCTION        0.58          0.979        0.121
  YS02001915           JUNCTION        0.48          0.931        0.069
  YS02001918           JUNCTION        0.39          0.810        0.000
  YS02001920           JUNCTION        0.41          1.108        0.032
  YS02001923           JUNCTION        0.09          0.814        0.006
  YS02001926           JUNCTION        0.12          0.900        0.000
  YS02001929           JUNCTION        0.01          0.780        0.000
  YS02006553           JUNCTION        0.80          0.980        0.210
  YS02006556           JUNCTION        0.67          0.939        0.411
  YS02006558           JUNCTION        0.66          0.931        0.469
  YS02006561           JUNCTION        0.36          0.135        1.015
  YS02163301           JUNCTION        0.96          0.927        0.103
  YS02163601           JUNCTION        1.02          1.043        0.037
  YS02164001           JUNCTION        0.93          0.956        0.144
  YSB1154              JUNCTION        0.89          1.300        0.100
  YSB1171              JUNCTION        0.90          1.100        0.000
  YSB1174              JUNCTION        0.81          1.154        0.096
  YSB6556              JUNCTION        0.74          1.079        0.021
  
  
  *********************
  Node Flooding Summary
  *********************
  
  Flooding refers to all water that overflows a node, whether it ponds or not.
  --------------------------------------------------------------------------
                                                             Total   Maximum
                                 Maximum   Time of Max       Flood    Ponded
                        Hours       Rate    Occurrence      Volume     Depth
  Node                 Flooded       LPS   days hr:min    10^6 ltr    Meters
  --------------------------------------------------------------------------
  HS02004770              0.38   1065.28      0  02:14       0.672     0.000
  HS02004777              0.01     20.02      0  02:03       0.000     0.000
  HS02004785              0.01    124.30      0  02:03       0.000     0.000
  HS02004788              0.01    198.72      0  02:03       0.001     0.000
  HS02004792              0.37   1582.80      0  02:14       1.133     0.000
  HS02004799              0.20    219.03      0  02:12       0.084     0.000
  HS02004807              0.09    243.13      0  02:14       0.045     0.000
  HS02004824              0.01     27.49      0  02:06       0.000     0.000
  HS02004830              0.01     32.14      0  02:06       0.000     0.000
  HS02004837              0.01     60.55      0  02:05       0.000     0.000
  HS02004842              0.01    191.26      0  02:06       0.002     0.000
  HS02004848              0.01    109.44      0  02:06       0.000     0.000
  HS02004852              0.01     76.13      0  02:06       0.000     0.000
  HS02004856              0.01     22.23      0  02:06       0.000     0.000
  HS02004901              0.45    639.40      0  02:13       0.695     0.000
  WS02006109              0.43    285.82      0  02:13       0.257     0.000
  WS02006230              0.71    573.93      0  02:12       0.973     0.000
  WS02006232              0.18      2.95      0  02:33       0.000     0.000
  WS02006234              0.77    128.64      0  02:02       0.309     0.000
  WS02006235              0.01      7.61      0  01:55       0.000     0.000
  WS02006242              0.89    137.51      0  02:05       0.384     0.000
  WS02006248              1.30    339.43      0  02:01       1.305     0.000
  WS02006249              1.99   1300.44      0  02:13       4.274     0.000
  WS02006251              0.01     10.00      0  02:06       0.000     0.000
  WS02006252              0.48    667.60      0  02:13       0.568     0.000
  WS02006256              1.37    295.19      0  02:00       0.859     0.000
  YS02001580              0.01     31.81      0  02:02       0.000     0.000
  YS02001586              0.47    379.42      0  02:15       0.316     0.000
  YS02001590              0.01      6.12      0  02:02       0.000     0.000
  YS02001600              0.01      2.37      0  02:02       0.000     0.000
  YS02001601              0.68   1153.07      0  02:14       1.318     0.000
  YS02001602              0.57     62.15      0  02:14       0.116     0.000
  YS02001605              0.01      0.28      0  02:11       0.000     0.000
  YS02001610              0.50    665.84      0  02:15       0.624     0.000
  YS02001616              0.01      2.25      0  02:06       0.000     0.000
  YS02001619              0.01      3.89      0  02:06       0.000     0.000
  YS02001625              0.47   1305.02      0  02:14       1.172     0.000
  YS02001629              0.09     90.32      0  02:02       0.012     0.000
  YS02001644              0.21    902.68      0  02:14       0.365     0.000
  YS02001770              0.01      3.87      0  02:12       0.000     0.000
  YS02001779              0.17    468.79      0  02:14       0.157     0.000
  YS02001890              0.17    250.17      0  02:13       0.070     0.000
  YS02001907              0.34   1730.74      0  02:14       1.138     0.000
  YS02001918              0.01    101.03      0  02:07       0.001     0.000
  YS02001926              0.01     37.96      0  02:07       0.000     0.000
  YS02001929              0.01    219.29      0  02:07       0.001     0.000
  YSB1171                 0.29    995.16      0  02:14       0.567     0.000
  
  
  **********************
  Storage Volume Summary
  **********************
  
  --------------------------------------------------------------------------------------------------
                         Average     Avg  Evap Exfil       Maximum     Max    Time of Max    Maximum
                          Volume    Pcnt  Pcnt  Pcnt        Volume    Pcnt     Occurrence    Outflow
  Storage Unit           1000 m3    Full  Loss  Loss       1000 m3    Full    days hr:min        LPS
  --------------------------------------------------------------------------------------------------
  CC-storage               2.274      35     0     0         4.861      76       0  02:38    1783.53
  JK-storage               0.071      24     0     0         0.213      73       0  02:25    2300.00
  XR-storage               0.950      66     0     0         1.111      77       0  08:00     380.00
  
  
  ***********************
  Outfall Loading Summary
  ***********************
  
  -----------------------------------------------------------
                         Flow       Avg       Max       Total
                         Freq      Flow      Flow      Volume
  Outfall Node           Pcnt       LPS       LPS    10^6 ltr
  -----------------------------------------------------------
  CC-1                  20.98    683.00    683.00       3.569
  CC-2                  14.42    683.00    683.00       2.565
  JK-1                   7.86   1000.00   1000.00       2.055
  JK-2                   2.78   1000.00   1000.00       0.683
  WSC                   99.96    630.77   1513.08      16.430
  -----------------------------------------------------------
  System                29.20   3996.77   4872.83      25.301
  
  
  ********************
  Link Flow Summary
  ********************
  
  -----------------------------------------------------------------------------
                                 Maximum  Time of Max   Maximum    Max/    Max/
                                  |Flow|   Occurrence   |Veloc|    Full    Full
  Link                 Type          LPS  days hr:min     m/sec    Flow   Depth
  -----------------------------------------------------------------------------
  1                    CONDUIT   1513.08     0  02:17      3.70    0.53    0.52
  HS02004478WS02006287 CONDUIT   2304.52     0  02:12      2.61    0.65    1.00
  HS02004479HS02004480 CONDUIT    390.27     0  02:07      0.56    0.38    1.00
  HS02004480HS02004478 CONDUIT   2081.25     0  02:05      2.97    8.77    1.00
  HS02004770HS02004777 CONDUIT    721.89     0  02:03      1.03    1.32    1.00
  HS02004777HS02004785 CONDUIT    735.06     0  02:03      1.10    0.90    1.00
  HS02004785HS02004788 CONDUIT    708.17     0  02:03      1.35    5.34    1.00
  HS02004788HS02004792 CONDUIT    815.40     0  02:13      1.45    0.54    1.00
  HS02004792HS02004799 CONDUIT   1567.26     0  02:05      2.24    0.96    1.00
  HS02004799HS02004480 CONDUIT   1723.96     0  02:05      2.46    2.18    1.00
  HS02004802HS02004478 CONDUIT   1233.06     0  02:16      1.76    1.09    1.00
  HS02004807HS02004802 CONDUIT   1233.27     0  02:16      1.76    2.35    1.00
  HS02004817HS02004807 CONDUIT   1029.85     0  02:14      1.47    0.61    1.00
  HS02004817HS02004824 CONDUIT   1029.38     0  02:14      1.47    0.46    1.00
  HS02004824HS02004830 CONDUIT    590.37     0  02:04      0.86    0.77    1.00
  HS02004830HS02004837 CONDUIT    602.90     0  02:04      0.95    0.60    1.00
  HS02004837HS02004842 CONDUIT    848.21     0  02:05      1.21    0.51    1.00
  HS02004842HS02004848 CONDUIT    848.13     0  02:05      1.36    0.49    1.00
  HS02004848HS02004852 CONDUIT   1010.91     0  02:06      1.61    1.14    1.00
  HS02004852HS02004856 CONDUIT    958.21     0  02:06      1.48    1.10    1.00
  HS02004856HS02004862 CONDUIT   1024.44     0  02:06      1.69    1.02    1.00
  HS02004862HS02004870 CONDUIT   1046.73     0  02:06      1.76    1.13    1.00
  HS02004870HS02004876 CONDUIT   1220.13     0  02:13      1.74    0.81    1.00
  HS02004876HS02004881 CONDUIT   1459.27     0  02:13      2.15   15.52    1.00
  HS02004881HS02006253 CONDUIT   1593.34     0  02:13      2.28    0.31    1.00
  HS02004901HS02004770 CONDUIT    265.79     0  02:26      0.38    1.00    1.00
  WS02001211WS02001212 CONDUIT    210.17     0  03:12      0.54    0.16    0.69
  WS02001212WS02001213 CONDUIT    212.74     0  03:13      1.04    0.33    0.56
  WS02001213WS02003059 CONDUIT    217.07     0  03:11      0.47    0.36    0.90
  WS02003059WS02003060 CONDUIT    222.00     0  03:14      0.65    0.14    0.81
  WS02003060WS02003069 CONDUIT   1510.19     0  02:15      2.09    0.59    0.61
  WS02003066WSF200     CONDUIT   1310.60     0  02:14      3.25    0.22    0.39
  WS02003067WS02003066 CONDUIT   1310.44     0  02:14      2.01    0.42    0.56
  WS02003069WS02003072 CONDUIT   1510.45     0  02:15      1.90    0.73    0.66
  WS02003072WS02003073 CONDUIT   1510.67     0  02:16      2.05    3.26    0.62
  WS02004138WS02004139 CONDUIT    190.00     0  00:32      2.14    0.04    0.42
  WS02004139WS02001211 CONDUIT    197.23     0  03:12      0.55    0.25    0.61
  WS02004401WS02004402 CONDUIT   1311.48     0  02:13      1.67    1.57    1.00
  WS02004402WS02004403 CONDUIT   1310.57     0  02:12      1.67    1.88    1.00
  WS02004403WS02004404 CONDUIT   1310.15     0  02:13      1.67    0.95    1.00
  WS02004404WS02004405 CONDUIT   1311.42     0  02:13      1.67   12.85    1.00
  WS02004405WS02004406 CONDUIT   1310.80     0  02:13      1.67    2.59    1.00
  WS02004406WS02004407 CONDUIT   1311.04     0  02:13      1.71    0.59    0.97
  WS02004407WS02004409 CONDUIT   1310.09     0  02:14      1.79    0.46    0.97
  WS02004409WS02004410 CONDUIT   1310.03     0  02:14      1.67    1.69    1.00
  WS02004410WS02004411 CONDUIT   1310.45     0  02:14      1.67    1.79    1.00
  WS02004411WS02004412 CONDUIT   1309.89     0  02:13      1.67    1.86    1.00
  WS02004412WS02004413 CONDUIT   1310.01     0  02:14      1.67    0.88    1.00
  WS02004413WS02003067 CONDUIT   1309.92     0  02:14      2.02    0.56    0.77
  WS02006109WS02006110 CONDUIT   1124.71     0  02:30      2.24    2.16    1.00
  WS02006110WS02006113 CONDUIT   1124.91     0  02:30      2.24    1.02    1.00
  WS02006111WS02006112 CONDUIT   1125.39     0  02:30      2.24    0.54    1.00
  WS02006112WS02006115 CONDUIT   1309.57     0  02:13      1.67    0.77    1.00
  WS02006113WS02006111 CONDUIT   1125.02     0  02:30      2.69    1.35    1.00
  WS02006115WS02006116 CONDUIT   1310.03     0  02:12      1.67    1.68    1.00
  WS02006116WS02004401 CONDUIT   1310.33     0  02:13      1.67    1.81    1.00
  WS02006228WS02006109 CONDUIT   1288.01     0  02:12      2.56    5.63    1.00
  WS02006229WS02006228 CONDUIT   1288.36     0  02:12      2.56    4.27    1.00
  WS02006230WS02006229 CONDUIT   1016.73     0  02:12      2.64   22.63    1.00
  WS02006231WS02006230 CONDUIT    566.26     0  04:05      1.51    8.59    1.00
  WS02006232WS02006231 CONDUIT    561.76     0  04:00      1.46    1.18    1.00
  WS02006234WS02006232 CONDUIT    560.90     0  04:00      1.46    1.13    1.00
  WS02006235WS02006234 CONDUIT    557.42     0  04:00      1.45    5.88    1.00
  WS02006238WS02006235 CONDUIT    431.12     0  04:10      1.45    0.96    1.00
  WS02006239WS02006238 CONDUIT    430.79     0  04:11      1.12    1.38    1.00
  WS02006240WS02006239 CONDUIT    430.18     0  04:11      1.26    1.35    1.00
  WS02006242WS02006240 CONDUIT    429.42     0  04:10      1.14    1.71    1.00
  WS02006243WS02006242 CONDUIT    432.40     0  04:10      1.34    0.92    1.00
  WS02006245WS02006243 CONDUIT    433.46     0  04:10      1.39    1.28    1.00
  WS02006247WS02006245 CONDUIT    432.71     0  04:10      1.37    3.43    1.00
  WS02006248WS02006247 CONDUIT    431.70     0  04:10      1.38    0.94    1.00
  WS02006249WS02006248 CONDUIT    430.54     0  04:05      1.38    2.36    1.00
  WS02006251WS02006249 CONDUIT   1361.36     0  02:13      3.54    3.93    1.00
  WS02006252WS02006251 CONDUIT    411.90     0  01:55     18.34    1.51    1.00
  WS02006253WS02006251 CONDUIT   1628.72     0  02:13      4.23    4.88    1.00
  WS02006256WS02006235 CONDUIT    288.93     0  00:00      4.23    3.06    1.00
  WS02006280WS02006229 CONDUIT   2305.20     0  02:12      4.08    0.49    1.00
  WS02006284WS02006280 CONDUIT   2304.72     0  02:12      2.96    0.97    1.00
  WS02006287WS02006284 CONDUIT   2304.30     0  02:12      2.93    1.07    1.00
  WSF200WS02003060     CONDUIT   1310.83     0  02:14      2.29    0.29    0.50
  YS02001580YS02001583 CONDUIT     73.32     0  02:02      0.56    0.28    1.00
  YS02001583YS02001586 CONDUIT    138.79     0  02:02      0.57    0.21    1.00
  YS02001586YS02001590 CONDUIT    318.33     0  02:17      1.25    0.56    1.00
  YS02001590YS02001593 CONDUIT    319.37     0  02:33      1.13    2.00    1.00
  YS02001593YS02001596 CONDUIT    318.11     0  02:17      1.73    0.50    1.00
  YS02001596YS02001600 CONDUIT    318.39     0  02:17      1.25    0.62    1.00
  YS02001600YS02001601 CONDUIT    318.70     0  02:17      1.13    0.55    1.00
  YS02001601YS02001602 CONDUIT    502.81     0  02:01      1.78    1.82    1.00
  YS02001602YS02001605 CONDUIT    502.89     0  02:01      1.78   10.64    1.00
  YS02001605YS02001607 CONDUIT    502.83     0  02:01      1.78    2.76    1.00
  YS02001607YS02001610 CONDUIT    499.45     0  02:01      0.64    0.47    1.00
  YS02001610YS02001613 CONDUIT    500.38     0  02:01      0.64    0.58    1.00
  YS02001613YS02001616 CONDUIT    507.06     0  02:02      0.65    0.43    1.00
  YS02001616YS02001619 CONDUIT    520.10     0  02:02      0.66    0.90    1.00
  YS02001619YS02001622 CONDUIT    926.37     0  02:13      1.18    1.37    1.00
  YS02001622YS02001625 CONDUIT    932.56     0  02:02      1.19    0.50    1.00
  YS02001625YS02001629 CONDUIT    934.42     0  02:02      1.19    0.44    1.00
  YS02001629YS02163301 CONDUIT    920.20     0  02:05      1.17    1.13    1.00
  YS02001633YS02163601 CONDUIT   1332.27     0  02:05      1.70    1.40    1.00
  YS02001641YS02001644 CONDUIT   1328.91     0  02:05      1.69    4.30    1.00
  YS02001644YS02001647 CONDUIT   1701.55     0  02:06      2.19    1.00    1.00
  YS02001647YS02001649 CONDUIT   1708.77     0  02:06      2.31    0.90    1.00
  YS02001649YS02001757 CONDUIT   1855.40     0  02:05      2.44    1.13    1.00
  YS02001652YS02001649 CONDUIT    831.19     0  02:13      1.06    0.41    1.00
  YS02001655YS02001652 CONDUIT    831.20     0  02:13      1.29    0.40    1.00
  YS02001658YS02001655 CONDUIT    830.99     0  02:13      1.85    0.35    1.00
  YS02001661YS02001658 CONDUIT    830.73     0  02:13      2.23    0.33    1.00
  YS02001664YS02001661 CONDUIT    887.98     0  02:11      2.18    0.28    0.76
  YS02001745YS02001748 CONDUIT    548.53     0  02:09      2.08    0.21    0.90
  YS02001748YS02001751 CONDUIT    516.34     0  02:13      1.65    0.26    1.00
  YS02001751YS02001754 CONDUIT    517.03     0  02:13      1.40    0.25    1.00
  YS02001754YS02001757 CONDUIT    516.65     0  02:13      0.66    0.21    1.00
  YS02001757CaochengTiaoxuchi CONDUIT   3118.39     0  02:10      3.97    1.35    1.00
  YS02001759YS02001757 CONDUIT   1296.85     0  02:12      1.65    0.92    1.00
  YS02001762YS02001759 CONDUIT    702.01     0  02:10      0.89    0.81    1.00
  YS02001765YS02001762 CONDUIT    703.06     0  02:10      0.90    0.66    1.00
  YS02001767YS02001765 CONDUIT    703.78     0  02:10      0.90    0.89    1.00
  YS02001770YS02001767 CONDUIT    703.74     0  02:10      0.90    2.79    1.00
  YS02001774YS02001770 CONDUIT    468.18     0  02:14      0.60    0.30    1.00
  YS02001779YS02001774 CONDUIT    469.26     0  02:14      0.60    0.24    1.00
  YS02001783YS02001784 CONDUIT   1163.66     0  02:12      2.32    1.60    1.00
  YS02001784YS02001785 CONDUIT   1164.39     0  02:12      2.32    2.71    1.00
  YS02001786YS02001788 CONDUIT   1165.78     0  02:12      2.48    2.25    0.89
  YS02001788YS02001790 CONDUIT   1177.19     0  02:12      2.71    0.87    0.84
  YS02001790YS02001791 CONDUIT   1291.15     0  02:13      3.43    1.40    0.70
  YS02001791YS02001793 CONDUIT   1253.54     0  02:12      6.74    0.54    0.45
  YS02001793JiankangQianchi CONDUIT   1230.21     0  02:14      2.46    0.10    0.65
  YS02001882YS02001884 CONDUIT     27.20     0  02:04      0.13    0.03    1.00
  YS02001884YS02001887 CONDUIT     56.80     0  02:04      0.09    0.08    1.00
  YS02001887YS02001890 CONDUIT    765.96     0  02:13      0.98    1.31    1.00
  YS02001890YS02001895 CONDUIT    519.06     0  02:17      0.66    0.24    1.00
  YS02001895YS02001898 CONDUIT    517.90     0  02:17      0.66    0.90    1.00
  YS02001898YS02001901 CONDUIT    517.63     0  02:16      0.66    0.33    1.00
  YS02001901YS02001904 CONDUIT    517.58     0  02:16      0.66    0.80    1.00
  YS02001904YS02001907 CONDUIT    519.24     0  02:17      0.66    0.18    1.00
  YS02001907YS02006553 CONDUIT    800.61     0  02:29      0.89    0.94    1.00
  YS02001910YS02001907 CONDUIT   1348.28     0  02:14      1.72    0.76    1.00
  YS02001915YS02001910 CONDUIT   1347.51     0  02:14      1.72    0.67    1.00
  YS02001918YS02001915 CONDUIT    453.93     0  02:14      0.58    0.25    1.00
  YS02001920YS02001918 CONDUIT    455.19     0  02:14      0.65    0.44    1.00
  YS02001923YS02001920 CONDUIT    451.53     0  02:14      0.69    0.20    1.00
  YS02001926YS02001923 CONDUIT    450.47     0  02:14      0.95    0.64    1.00
  YS02001929YS02001926 CONDUIT    450.42     0  02:14      1.10    0.21    1.00
  YS02006553YS02006556 CONDUIT    800.92     0  02:29      1.02    0.69    1.00
  YS02006556YS02006558 CONDUIT    803.69     0  02:29      1.02    0.63    1.00
  YS02006558YS02006561 CONDUIT   1162.96     0  02:12      4.11    2.57    1.00
  YS02006561YS02001783 CONDUIT   1163.05     0  02:12      2.31    0.60    1.00
  YS02163301YS02001633 CONDUIT    919.54     0  02:05      1.17    0.86    1.00
  YS02163601YS02164001 CONDUIT   1331.60     0  02:05      1.70    1.18    1.00
  YS02164001YS02001641 CONDUIT   1329.51     0  02:05      1.69    1.82    1.00
  YSB1154YSB6556       CONDUIT    414.12     0  02:14      1.08    0.74    1.00
  YSB1171HS02004479    CONDUIT    391.11     0  02:07      0.78    0.26    1.00
  YSB1174YSB1171       CONDUIT    360.64     0  02:13      0.94    0.55    1.00
  YSB6556YSB1171       CONDUIT    414.94     0  02:14      1.08    0.43    1.00
  CC-R1                PUMP       683.00     0  00:00              1.00
  CC-R2                PUMP       683.00     0  00:00              1.00
  CC-S1                PUMP       200.00     0  00:00              1.00
  CC-S2                PUMP       200.00     0  00:00              1.00
  JK-R1                PUMP      1000.00     0  00:00              1.00
  JK-R2                PUMP      1000.00     0  00:00              1.00
  JK-S                 PUMP       300.00     0  00:00              1.00
  XR-1                 PUMP        95.00     0  00:00              1.00
  XR-2                 PUMP        95.00     0  00:00              1.00
  XR-3                 PUMP        95.00     0  00:00              1.00
  XR-4                 PUMP        95.00     0  00:00              1.00
  
  
  ***************************
  Flow Classification Summary
  ***************************
  
  -------------------------------------------------------------------------------------
                      Adjusted    ---------- Fraction of Time in Flow Class ---------- 
                       /Actual         Up    Down  Sub   Sup   Up    Down  Norm  Inlet 
  Conduit               Length    Dry  Dry   Dry   Crit  Crit  Crit  Crit  Ltd   Ctrl  
  -------------------------------------------------------------------------------------
  1                       1.00   0.00  0.00  0.00  0.00  1.00  0.00  0.00  0.45  0.00
  HS02004478WS02006287    1.00   0.13  0.00  0.00  0.63  0.25  0.00  0.00  0.59  0.00
  HS02004479HS02004480    1.00   0.03  0.00  0.00  0.97  0.00  0.00  0.00  0.11  0.00
  HS02004480HS02004478    1.00   0.11  0.00  0.00  0.57  0.00  0.00  0.31  0.00  0.00
  HS02004770HS02004777    1.00   0.00  0.11  0.00  0.89  0.00  0.00  0.00  0.03  0.00
  HS02004777HS02004785    1.00   0.00  0.00  0.00  1.00  0.00  0.00  0.00  0.12  0.00
  HS02004785HS02004788    1.00   0.00  0.00  0.00  1.00  0.00  0.00  0.00  0.00  0.00
  HS02004788HS02004792    1.00   0.00  0.00  0.00  0.99  0.01  0.00  0.00  0.90  0.00
  HS02004792HS02004799    1.00   0.00  0.00  0.00  0.99  0.01  0.00  0.00  0.86  0.00
  HS02004799HS02004480    1.00   0.00  0.03  0.00  0.88  0.00  0.10  0.00  0.00  0.00
  HS02004802HS02004478    1.00   0.11  0.00  0.00  0.88  0.00  0.00  0.00  0.03  0.00
  HS02004807HS02004802    1.00   0.11  0.00  0.00  0.88  0.00  0.00  0.01  0.00  0.00
  HS02004817HS02004807    1.00   0.00  0.11  0.00  0.89  0.00  0.00  0.00  0.01  0.00
  HS02004817HS02004824    1.00   0.00  0.00  0.00  1.00  0.00  0.00  0.00  0.81  0.00
  HS02004824HS02004830    1.00   0.00  0.00  0.00  1.00  0.00  0.00  0.00  0.01  0.00
  HS02004830HS02004837    1.00   0.00  0.00  0.00  1.00  0.00  0.00  0.00  0.88  0.00
  HS02004837HS02004842    1.00   0.00  0.00  0.00  1.00  0.00  0.00  0.00  0.11  0.00
  HS02004842HS02004848    1.00   0.00  0.11  0.00  0.89  0.00  0.00  0.00  0.55  0.00
  HS02004848HS02004852    1.00   0.11  0.00  0.00  0.89  0.00  0.00  0.00  0.70  0.00
  HS02004852HS02004856    1.00   0.11  0.00  0.00  0.88  0.00  0.00  0.00  0.67  0.00
  HS02004856HS02004862    1.00   0.00  0.13  0.00  0.87  0.00  0.00  0.00  0.74  0.00
  HS02004862HS02004870    1.00   0.00  0.00  0.00  1.00  0.00  0.00  0.00  0.03  0.00
  HS02004870HS02004876    1.00   0.00  0.00  0.00  0.99  0.01  0.00  0.00  0.85  0.00
  HS02004876HS02004881    1.00   0.01  0.00  0.00  0.79  0.20  0.00  0.00  0.00  0.00
  HS02004881HS02006253    1.00   0.01  0.03  0.00  0.68  0.01  0.00  0.26  0.41  0.00
  HS02004901HS02004770    1.00   0.11  0.00  0.00  0.89  0.00  0.00  0.00  0.00  0.00
  WS02001211WS02001212    1.00   0.00  0.02  0.00  0.98  0.00  0.00  0.00  0.00  0.00
  WS02001212WS02001213    1.00   0.02  0.00  0.00  0.59  0.00  0.40  0.00  0.00  0.00
  WS02001213WS02003059    1.00   0.00  0.00  0.00  1.00  0.00  0.00  0.00  0.00  0.00
  WS02003059WS02003060    1.00   0.00  0.00  0.00  1.00  0.00  0.00  0.00  0.03  0.00
  WS02003060WS02003069    1.00   0.00  0.00  0.00  0.98  0.02  0.00  0.00  0.37  0.00
  WS02003066WSF200        1.00   0.07  0.00  0.00  0.00  0.93  0.00  0.00  0.61  0.00
  WS02003067WS02003066    1.00   0.06  0.01  0.00  0.94  0.00  0.00  0.00  0.00  0.00
  WS02003069WS02003072    1.00   0.00  0.00  0.00  1.00  0.00  0.00  0.00  0.43  0.00
  WS02003072WS02003073    1.00   0.00  0.00  0.00  0.00  0.00  0.00  1.00  0.00  0.00
  WS02004138WS02004139    1.00   0.00  0.00  0.00  0.98  0.00  0.00  0.01  0.98  0.00
  WS02004139WS02001211    1.00   0.00  0.00  0.00  1.00  0.00  0.00  0.00  0.00  0.00
  WS02004401WS02004402    1.00   0.02  0.00  0.00  0.98  0.00  0.00  0.00  0.00  0.00
  WS02004402WS02004403    1.00   0.02  0.00  0.00  0.98  0.00  0.00  0.00  0.00  0.00
  WS02004403WS02004404    1.00   0.00  0.02  0.00  0.98  0.00  0.00  0.00  0.00  0.00
  WS02004404WS02004405    1.00   0.00  0.00  0.00  1.00  0.00  0.00  0.00  0.00  0.00
  WS02004405WS02004406    1.00   0.00  0.00  0.00  1.00  0.00  0.00  0.00  0.00  0.00
  WS02004406WS02004407    1.00   0.00  0.04  0.00  0.96  0.00  0.00  0.00  0.00  0.00
  WS02004407WS02004409    1.00   0.04  0.00  0.00  0.95  0.01  0.00  0.00  0.82  0.00
  WS02004409WS02004410    1.00   0.04  0.00  0.00  0.96  0.00  0.00  0.00  0.00  0.00
  WS02004410WS02004411    1.00   0.04  0.00  0.00  0.96  0.00  0.00  0.00  0.00  0.00
  WS02004411WS02004412    1.00   0.04  0.00  0.00  0.96  0.00  0.00  0.00  0.00  0.00
  WS02004412WS02004413    1.00   0.04  0.00  0.00  0.95  0.01  0.00  0.00  0.00  0.00
  WS02004413WS02003067    1.00   0.05  0.01  0.00  0.00  0.00  0.94  0.00  0.00  0.00
  WS02006109WS02006110    1.00   0.00  0.01  0.00  0.99  0.00  0.01  0.00  0.00  0.00
  WS02006110WS02006113    1.00   0.01  0.01  0.00  0.99  0.00  0.00  0.00  0.00  0.00
  WS02006111WS02006112    1.00   0.01  0.00  0.00  0.98  0.00  0.00  0.00  0.75  0.00
  WS02006112WS02006115    1.00   0.01  0.00  0.00  0.98  0.00  0.00  0.00  0.00  0.00
  WS02006113WS02006111    1.00   0.01  0.00  0.00  0.22  0.76  0.00  0.00  0.13  0.00
  WS02006115WS02006116    1.00   0.02  0.00  0.00  0.98  0.00  0.00  0.01  0.00  0.00
  WS02006116WS02004401    1.00   0.02  0.00  0.00  0.98  0.00  0.00  0.00  0.00  0.00
  WS02006228WS02006109    1.00   0.00  0.00  0.00  1.00  0.00  0.00  0.00  0.01  0.00
  WS02006229WS02006228    1.00   0.00  0.00  0.00  0.99  0.00  0.00  0.00  0.00  0.00
  WS02006230WS02006229    1.00   0.00  0.00  0.00  0.99  0.00  0.00  0.01  0.03  0.00
  WS02006231WS02006230    1.00   0.00  0.00  0.00  0.54  0.00  0.46  0.00  0.00  0.00
  WS02006232WS02006231    1.00   0.00  0.00  0.00  0.99  0.00  0.00  0.00  0.00  0.00
  WS02006234WS02006232    1.00   0.00  0.00  0.00  1.00  0.00  0.00  0.00  0.02  0.00
  WS02006235WS02006234    1.00   0.00  0.00  0.00  0.95  0.00  0.05  0.00  0.00  0.00
  WS02006238WS02006235    1.00   0.00  0.00  0.00  1.00  0.00  0.00  0.00  0.00  0.00
  WS02006239WS02006238    1.00   0.00  0.00  0.00  1.00  0.00  0.00  0.00  0.08  0.00
  WS02006240WS02006239    1.00   0.00  0.00  0.00  0.86  0.00  0.00  0.14  0.02  0.00
  WS02006242WS02006240    1.00   0.00  0.00  0.00  1.00  0.00  0.00  0.00  0.00  0.00
  WS02006243WS02006242    1.00   0.00  0.00  0.00  1.00  0.00  0.00  0.00  0.40  0.00
  WS02006245WS02006243    1.00   0.00  0.00  0.00  0.93  0.00  0.00  0.07  0.01  0.00
  WS02006247WS02006245    1.00   0.00  0.00  0.00  0.99  0.00  0.00  0.01  0.00  0.00
  WS02006248WS02006247    1.00   0.00  0.00  0.00  1.00  0.00  0.00  0.00  0.39  0.00
  WS02006249WS02006248    1.00   0.00  0.00  0.00  0.78  0.00  0.22  0.00  0.00  0.00
  WS02006251WS02006249    1.00   0.00  0.00  0.00  1.00  0.00  0.00  0.00  0.38  0.00
  WS02006252WS02006251    1.00   0.01  0.23  0.00  0.34  0.00  0.41  0.00  0.01  0.00
  WS02006253WS02006251    1.00   0.00  0.00  0.00  1.00  0.00  0.00  0.00  0.01  0.00
  WS02006256WS02006235    1.00   0.00  0.00  0.00  0.99  0.01  0.00  0.00  0.00  0.00
  WS02006280WS02006229    1.00   0.12  0.00  0.00  0.19  0.03  0.00  0.66  0.01  0.00
  WS02006284WS02006280    1.00   0.12  0.00  0.00  0.12  0.03  0.00  0.73  0.00  0.00
  WS02006287WS02006284    1.00   0.10  0.02  0.00  0.54  0.34  0.00  0.00  0.65  0.00
  WSF200WS02003060        1.00   0.00  0.07  0.00  0.46  0.47  0.00  0.00  0.48  0.00
  YS02001580YS02001583    1.00   0.26  0.51  0.00  0.23  0.00  0.00  0.00  0.65  0.00
  YS02001583YS02001586    1.00   0.25  0.46  0.00  0.29  0.00  0.00  0.00  0.65  0.00
  YS02001586YS02001590    1.00   0.11  0.00  0.00  0.51  0.08  0.00  0.29  0.37  0.00
  YS02001590YS02001593    1.00   0.11  0.00  0.00  0.14  0.00  0.74  0.00  0.00  0.00
  YS02001593YS02001596    1.00   0.12  0.00  0.00  0.17  0.01  0.00  0.71  0.02  0.00
  YS02001596YS02001600    1.00   0.12  0.00  0.00  0.25  0.03  0.00  0.61  0.04  0.00
  YS02001600YS02001601    1.00   0.11  0.00  0.00  0.88  0.00  0.00  0.00  0.60  0.00
  YS02001601YS02001602    1.00   0.11  0.00  0.00  0.88  0.00  0.00  0.00  0.00  0.00
  YS02001602YS02001605    1.00   0.12  0.00  0.00  0.88  0.00  0.00  0.00  0.00  0.00
  YS02001605YS02001607    1.00   0.12  0.00  0.00  0.88  0.00  0.00  0.00  0.00  0.00
  YS02001607YS02001610    1.00   0.12  0.00  0.00  0.88  0.00  0.00  0.00  0.01  0.00
  YS02001610YS02001613    1.00   0.11  0.00  0.00  0.89  0.00  0.00  0.00  0.00  0.00
  YS02001613YS02001616    1.00   0.11  0.00  0.00  0.89  0.00  0.00  0.00  0.00  0.00
  YS02001616YS02001619    1.00   0.11  0.00  0.00  0.89  0.00  0.00  0.00  0.00  0.00
  YS02001619YS02001622    1.00   0.11  0.00  0.00  0.89  0.00  0.00  0.00  0.28  0.00
  YS02001622YS02001625    1.00   0.11  0.00  0.00  0.89  0.00  0.00  0.00  0.04  0.00
  YS02001625YS02001629    1.00   0.11  0.02  0.00  0.19  0.00  0.67  0.00  0.00  0.00
  YS02001629YS02163301    1.00   0.12  0.00  0.00  0.87  0.00  0.00  0.00  0.00  0.00
  YS02001633YS02163601    1.00   0.00  0.00  0.00  1.00  0.00  0.00  0.00  0.15  0.00
  YS02001641YS02001644    1.00   0.00  0.00  0.00  1.00  0.00  0.00  0.00  0.00  0.00
  YS02001644YS02001647    1.00   0.00  0.13  0.00  0.87  0.00  0.00  0.00  0.00  0.00
  YS02001647YS02001649    1.00   0.00  0.13  0.00  0.50  0.37  0.00  0.00  0.56  0.00
  YS02001649YS02001757    1.00   0.00  0.00  0.00  0.65  0.35  0.00  0.00  0.40  0.00
  YS02001652YS02001649    1.00   0.00  0.00  0.00  0.98  0.02  0.00  0.00  0.73  0.00
  YS02001655YS02001652    1.00   0.00  0.00  0.00  0.24  0.01  0.00  0.75  0.06  0.00
  YS02001658YS02001655    1.00   0.00  0.12  0.00  0.63  0.25  0.00  0.00  0.68  0.00
  YS02001661YS02001658    1.00   0.12  0.00  0.00  0.48  0.40  0.00  0.00  0.66  0.00
  YS02001664YS02001661    1.00   0.11  0.00  0.00  0.75  0.13  0.00  0.00  0.85  0.00
  YS02001745YS02001748    1.00   0.00  0.00  0.00  0.12  0.01  0.00  0.87  0.04  0.00
  YS02001748YS02001751    1.00   0.00  0.00  0.00  0.78  0.22  0.00  0.00  0.75  0.00
  YS02001751YS02001754    1.00   0.00  0.00  0.00  0.21  0.01  0.00  0.78  0.04  0.00
  YS02001754YS02001757    1.00   0.00  0.00  0.00  1.00  0.00  0.00  0.00  0.80  0.00
  YS02001757CaochengTiaoxuchi    1.00   0.00  0.00  0.00  1.00  0.00  0.00  0.00  0.70  0.00
  YS02001759YS02001757    1.00   0.00  0.00  0.00  1.00  0.00  0.00  0.00  0.55  0.00
  YS02001762YS02001759    1.00   0.00  0.00  0.00  1.00  0.00  0.00  0.00  0.04  0.00
  YS02001765YS02001762    1.00   0.00  0.00  0.00  1.00  0.00  0.00  0.00  0.66  0.00
  YS02001767YS02001765    1.00   0.00  0.00  0.00  1.00  0.00  0.00  0.00  0.01  0.00
  YS02001770YS02001767    1.00   0.00  0.00  0.00  1.00  0.00  0.00  0.00  0.00  0.00
  YS02001774YS02001770    1.00   0.00  0.11  0.00  0.80  0.00  0.08  0.00  0.03  0.00
  YS02001779YS02001774    1.00   0.00  0.00  0.00  1.00  0.00  0.00  0.00  0.75  0.00
  YS02001783YS02001784    1.00   0.00  0.14  0.00  0.86  0.00  0.00  0.00  0.55  0.00
  YS02001784YS02001785    1.00   0.00  0.00  0.00  1.00  0.00  0.00  0.00  0.17  0.00
  YS02001786YS02001788    1.00   0.00  0.00  0.00  0.71  0.29  0.00  0.00  0.00  0.00
  YS02001788YS02001790    1.00   0.00  0.00  0.00  0.17  0.83  0.00  0.00  0.80  0.00
  YS02001790YS02001791    1.00   0.00  0.00  0.00  0.01  0.99  0.00  0.00  0.16  0.00
  YS02001791YS02001793    1.00   0.00  0.00  0.00  0.00  1.00  0.00  0.00  0.01  0.00
  YS02001793JiankangQianchi    1.00   0.00  0.00  0.00  0.98  0.02  0.00  0.00  0.96  0.00
  YS02001882YS02001884    1.00   0.12  0.00  0.00  0.87  0.00  0.00  0.00  0.00  0.00
  YS02001884YS02001887    1.00   0.07  0.04  0.00  0.89  0.00  0.00  0.00  0.00  0.00
  YS02001887YS02001890    1.00   0.00  0.00  0.00  0.98  0.00  0.02  0.00  0.00  0.00
  YS02001890YS02001895    1.00   0.00  0.12  0.00  0.87  0.00  0.00  0.00  0.00  0.00
  YS02001895YS02001898    1.00   0.13  0.00  0.00  0.86  0.00  0.01  0.00  0.00  0.00
  YS02001898YS02001901    1.00   0.13  0.00  0.00  0.87  0.00  0.00  0.00  0.01  0.00
  YS02001901YS02001904    1.00   0.13  0.00  0.00  0.87  0.00  0.00  0.00  0.00  0.00
  YS02001904YS02001907    1.00   0.00  0.13  0.00  0.87  0.00  0.00  0.00  0.00  0.00
  YS02001907YS02006553    1.00   0.00  0.02  0.00  0.98  0.00  0.00  0.00  0.00  0.00
  YS02001910YS02001907    1.00   0.00  0.00  0.00  0.98  0.00  0.00  0.02  0.12  0.00
  YS02001915YS02001910    1.00   0.00  0.00  0.00  0.98  0.02  0.00  0.00  0.16  0.00
  YS02001918YS02001915    1.00   0.00  0.00  0.00  0.98  0.01  0.00  0.00  0.74  0.00
  YS02001920YS02001918    1.00   0.00  0.00  0.00  1.00  0.00  0.00  0.00  0.00  0.00
  YS02001923YS02001920    1.00   0.00  0.00  0.00  1.00  0.00  0.00  0.00  0.92  0.00
  YS02001926YS02001923    1.00   0.00  0.09  0.00  0.06  0.00  0.85  0.00  0.00  0.00
  YS02001929YS02001926    1.00   0.00  0.11  0.00  0.89  0.00  0.00  0.00  0.82  0.00
  YS02006553YS02006556    1.00   0.01  0.00  0.00  0.99  0.00  0.00  0.00  0.03  0.00
  YS02006556YS02006558    1.00   0.00  0.00  0.00  1.00  0.00  0.00  0.00  0.00  0.00
  YS02006558YS02006561    1.00   0.14  0.00  0.00  0.06  0.80  0.00  0.00  0.18  0.00
  YS02006561YS02001783    1.00   0.14  0.00  0.00  0.10  0.76  0.00  0.00  0.68  0.00
  YS02163301YS02001633    1.00   0.00  0.12  0.00  0.88  0.00  0.00  0.00  0.00  0.00
  YS02163601YS02164001    1.00   0.00  0.09  0.00  0.91  0.00  0.00  0.00  0.00  0.00
  YS02164001YS02001641    1.00   0.00  0.09  0.00  0.91  0.00  0.00  0.00  0.05  0.00
  YSB1154YSB6556          1.00   0.11  0.00  0.00  0.89  0.00  0.00  0.00  0.02  0.00
  YSB1171HS02004479       1.00   0.03  0.00  0.00  0.95  0.01  0.00  0.02  0.10  0.00
  YSB1174YSB1171          1.00   0.05  0.05  0.00  0.90  0.00  0.00  0.00  0.00  0.00
  YSB6556YSB1171          1.00   0.03  0.08  0.00  0.89  0.00  0.00  0.00  0.00  0.00
  
  
  *************************
  Conduit Surcharge Summary
  *************************
  
  ----------------------------------------------------------------------------
                                                           Hours        Hours 
                         --------- Hours Full --------   Above Full   Capacity
  Conduit                Both Ends  Upstream  Dnstream   Normal Flow   Limited
  ----------------------------------------------------------------------------
  HS02004478WS02006287        0.49      0.49      0.67      0.01         0.01
  HS02004479HS02004480        0.67      0.67      0.70      0.01         0.01
  HS02004480HS02004478        0.60      0.67      0.60      1.69         0.60
  HS02004770HS02004777        0.57      0.57      0.57      0.11         0.07
  HS02004777HS02004785        0.52      0.52      0.57      0.01         0.01
  HS02004785HS02004788        0.51      0.52      0.51      1.44         0.47
  HS02004788HS02004792        0.51      0.51      0.63      0.01         0.01
  HS02004792HS02004799        0.63      0.63      0.76      0.01         0.01
  HS02004799HS02004480        0.67      0.67      0.76      0.86         0.01
  HS02004802HS02004478        0.62      0.62      0.69      0.10         0.01
  HS02004807HS02004802        0.66      0.66      0.68      0.26         0.27
  HS02004817HS02004807        0.66      0.66      1.27      0.01         0.01
  HS02004817HS02004824        0.52      0.52      1.27      0.01         0.01
  HS02004824HS02004830        0.49      0.49      0.52      0.01         0.01
  HS02004830HS02004837        0.44      0.44      0.49      0.01         0.01
  HS02004837HS02004842        0.44      0.44      0.59      0.01         0.01
  HS02004842HS02004848        0.41      0.41      0.59      0.01         0.01
  HS02004848HS02004852        0.41      0.41      0.44      0.02         0.01
  HS02004852HS02004856        0.44      0.44      0.46      0.02         0.01
  HS02004856HS02004862        0.43      0.43      0.46      0.01         0.01
  HS02004862HS02004870        0.46      0.46      0.48      0.18         0.18
  HS02004870HS02004876        0.48      0.48      0.56      0.01         0.01
  HS02004876HS02004881        0.54      0.56      0.54      1.47         0.54
  HS02004881HS02006253        0.54      0.54      2.35      0.01         0.01
  HS02004901HS02004770        0.57      0.57      0.57      0.01         0.01
  WS02003072WS02003073        0.01      0.01      0.01      3.62         0.01
  WS02004401WS02004402        1.61      1.61      1.62      1.41         1.41
  WS02004402WS02004403        1.62      1.62      1.63      1.61         1.60
  WS02004403WS02004404        1.63      1.63      1.84      0.01         0.02
  WS02004404WS02004405        1.78      1.84      1.78      4.82         1.78
  WS02004405WS02004406        1.73      1.78      1.73      2.25         1.73
  WS02004406WS02004407        0.01      0.01      1.73      0.01         0.01
  WS02004407WS02004409        0.01      0.01      1.08      0.01         0.01
  WS02004409WS02004410        1.02      1.08      1.02      1.48         1.02
  WS02004410WS02004411        0.91      1.02      0.91      1.55         0.91
  WS02004411WS02004412        0.79      0.91      0.79      1.60         0.79
  WS02004412WS02004413        0.79      0.79      1.36      0.01         0.01
  WS02004413WS02003067        0.01      0.01      1.36      0.01         0.01
  WS02006109WS02006110        2.09      2.09      3.17      2.12         0.01
  WS02006110WS02006113        1.35      1.35      3.11      0.31         0.01
  WS02006111WS02006112        1.32      1.32      3.45      0.01         0.01
  WS02006112WS02006115        1.50      1.50      2.39      0.01         0.01
  WS02006113WS02006111        1.34      1.35      1.34      1.40         1.34
  WS02006115WS02006116        1.51      1.51      1.52      1.47         1.47
  WS02006116WS02004401        1.61      1.61      1.61      1.58         1.56
  WS02006228WS02006109        3.02      3.16      3.02      3.80         3.02
  WS02006229WS02006228        2.99      3.07      2.99      3.47         2.99
  WS02006230WS02006229        3.30      3.39      3.31      4.83         2.24
  WS02006231WS02006230        1.93      1.93      2.23      4.61         1.04
  WS02006232WS02006231        2.13      2.13      3.06      0.09         0.15
  WS02006234WS02006232        2.84      2.84      3.06      0.07         0.10
  WS02006235WS02006234        2.80      2.81      2.84      4.43         1.03
  WS02006238WS02006235        2.87      2.87      3.04      0.01         0.36
  WS02006239WS02006238        2.93      2.99      2.93      2.55         1.33
  WS02006240WS02006239        2.85      2.90      2.86      2.52         1.27
  WS02006242WS02006240        2.87      2.87      3.14      2.89         0.91
  WS02006243WS02006242        2.91      2.91      3.07      0.01         0.05
  WS02006245WS02006243        2.87      2.89      2.88      1.67         1.26
  WS02006247WS02006245        2.86      2.93      2.86      3.88         1.53
  WS02006248WS02006247        2.84      2.84      2.90      0.01         0.07
  WS02006249WS02006248        2.82      2.82      2.86      2.62         0.01
  WS02006251WS02006249        2.85      2.86      2.86      3.14         2.68
  WS02006252WS02006251        3.34      3.34      3.39      2.83         0.01
  WS02006253WS02006251        2.85      2.86      2.90      0.81         0.02
  WS02006256WS02006235        4.60      4.66      7.60      0.72         0.01
  WS02006280WS02006229        0.79      0.79      1.00      0.01         0.01
  WS02006284WS02006280        0.70      0.70      0.78      0.01         0.01
  WS02006287WS02006284        0.60      0.60      0.71      0.30         0.31
  YS02001580YS02001583        0.61      0.61      0.67      0.01         0.01
  YS02001583YS02001586        0.62      0.62      0.75      0.01         0.01
  YS02001586YS02001590        0.76      0.76      0.83      0.01         0.01
  YS02001590YS02001593        0.84      0.84      0.86      0.87         0.01
  YS02001593YS02001596        0.85      0.85      0.96      0.01         0.01
  YS02001596YS02001600        1.01      1.01      1.13      0.01         0.01
  YS02001600YS02001601        1.19      1.19      1.44      0.01         0.01
  YS02001601YS02001602        1.34      1.34      1.48      1.12         0.01
  YS02001602YS02001605        1.29      1.29      1.34      2.31         0.01
  YS02001605YS02001607        1.25      1.29      1.25      1.40         1.25
  YS02001607YS02001610        0.83      0.83      0.86      0.01         0.01
  YS02001610YS02001613        0.82      0.82      0.86      0.01         0.01
  YS02001613YS02001616        0.78      0.78      0.82      0.01         0.01
  YS02001616YS02001619        0.76      0.76      0.78      0.01         0.02
  YS02001619YS02001622        0.76      0.76      0.76      0.83         0.71
  YS02001622YS02001625        0.76      0.76      0.96      0.01         0.01
  YS02001625YS02001629        0.72      0.72      0.96      0.01         0.01
  YS02001629YS02163301        0.95      0.95      0.96      0.07         0.14
  YS02001633YS02163601        0.99      0.99      1.02      0.31         0.30
  YS02001641YS02001644        0.90      0.93      0.90      1.52         0.89
  YS02001644YS02001647        0.68      0.68      0.90      0.01         0.01
  YS02001647YS02001649        0.68      0.68      0.81      0.01         0.01
  YS02001649YS02001757        0.81      0.81      0.88      0.08         0.04
  YS02001652YS02001649        0.63      0.63      0.81      0.01         0.01
  YS02001655YS02001652        0.45      0.45      0.62      0.01         0.01
  YS02001658YS02001655        0.24      0.24      0.45      0.01         0.01
  YS02001661YS02001658        0.02      0.02      0.24      0.01         0.01
  YS02001664YS02001661        0.01      0.01      0.07      0.01         0.01
  YS02001745YS02001748        0.01      0.01      0.18      0.01         0.01
  YS02001748YS02001751        0.22      0.22      0.34      0.01         0.01
  YS02001751YS02001754        0.34      0.34      0.53      0.01         0.01
  YS02001754YS02001757        0.57      0.57      0.88      0.01         0.01
  YS02001757CaochengTiaoxuchi        0.88      0.88      1.85      0.33         0.33
  YS02001759YS02001757        0.79      0.79      0.88      0.01         0.01
  YS02001762YS02001759        0.75      0.75      0.79      0.01         0.02
  YS02001765YS02001762        0.70      0.70      0.75      0.01         0.01
  YS02001767YS02001765        0.67      0.67      0.70      0.01         0.02
  YS02001770YS02001767        0.67      0.67      0.67      0.54         0.41
  YS02001774YS02001770        0.65      0.65      0.73      0.01         0.01
  YS02001779YS02001774        0.51      0.51      0.73      0.01         0.01
  YS02001783YS02001784        0.52      0.54      0.52      0.71         0.52
  YS02001784YS02001785        0.41      0.52      0.41      0.96         0.41
  YS02001786YS02001788        0.01      0.41      0.01      0.82         0.01
  YS02001790YS02001791        0.01      0.01      0.01      0.50         0.01
  YS02001793JiankangQianchi        0.01      0.01      6.63      0.01         0.01
  YS02001882YS02001884        0.49      0.49      0.50      0.01         0.01
  YS02001884YS02001887        0.52      0.52      0.53      0.01         0.01
  YS02001887YS02001890        0.55      0.55      0.56      0.10         0.01
  YS02001890YS02001895        0.48      0.48      0.58      0.01         0.01
  YS02001895YS02001898        0.46      0.46      0.48      0.01         0.01
  YS02001898YS02001901        0.48      0.48      0.52      0.01         0.01
  YS02001901YS02001904        0.51      0.51      0.52      0.01         0.01
  YS02001904YS02001907        0.51      0.51      0.80      0.01         0.01
  YS02001907YS02006553        0.97      0.97      1.04      0.01         0.01
  YS02001910YS02001907        0.58      0.58      0.78      0.01         0.01
  YS02001915YS02001910        0.48      0.48      0.58      0.01         0.01
  YS02001918YS02001915        0.39      0.39      0.48      0.01         0.01
  YS02001920YS02001918        0.39      0.39      0.41      0.01         0.01
  YS02001923YS02001920        0.35      0.35      0.41      0.01         0.01
  YS02001926YS02001923        0.09      0.09      0.12      0.01         0.01
  YS02001929YS02001926        0.01      0.01      0.12      0.01         0.01
  YS02006553YS02006556        0.68      0.68      0.80      0.01         0.01
  YS02006556YS02006558        0.73      0.73      0.82      0.01         0.01
  YS02006558YS02006561        0.43      0.66      0.43      0.91         0.43
  YS02006561YS02001783        0.36      0.36      0.54      0.01         0.01
  YS02163301YS02001633        0.96      0.96      1.00      0.01         0.01
  YS02163601YS02164001        0.93      0.93      1.02      0.09         0.01
  YS02164001YS02001641        0.93      0.93      0.93      0.69         0.64
  YSB1154YSB6556              0.74      0.74      0.89      0.01         0.01
  YSB1171HS02004479           0.63      0.63      0.90      0.01         0.01
  YSB1174YSB1171              0.81      0.81      1.17      0.01         0.01
  YSB6556YSB1171              0.74      0.74      1.33      0.01         0.01
  
  
  ***************
  Pumping Summary
  ***************
  
  ---------------------------------------------------------------------------------------------------------
                                                  Min       Avg       Max     Total     Power    % Time Off
                        Percent   Number of      Flow      Flow      Flow    Volume     Usage    Pump Curve
  Pump                 Utilized   Start-Ups       LPS       LPS       LPS  10^6 ltr     Kw-hr    Low   High
  ---------------------------------------------------------------------------------------------------------
  CC-R1                   18.14           4      0.00    683.00    683.00     3.569     67.74    0.0    6.1
  CC-R2                   13.05           8      0.00    683.00    683.00     2.566     49.22    0.0    8.9
  CC-S1                   47.51          27      0.00    200.00    200.00     2.736     18.31    0.0    0.0
  CC-S2                   42.33          19      0.00    200.00    200.00     2.438     16.23    0.0    0.0
  JK-R1                    7.14          21      0.00   1000.00   1000.00     2.056     22.30    0.0    0.0
  JK-R2                    2.37          18      0.00   1000.00   1000.00     0.683      5.29    0.0    0.0
  JK-S                    17.13          40      0.00    300.00    300.00     1.480     24.69    0.0    0.0
  XR-1                    97.91           2      0.00     95.00     95.00     2.679      9.64    0.0    0.0
  XR-2                    93.95           2      0.00     95.00     95.00     2.571      8.80    0.0    0.0
  XR-3                     0.00           1      0.00     95.00     95.00     0.000      0.00    0.0    0.0
  XR-4                     0.00           1      0.00     95.00     95.00     0.000      0.00    0.0    0.0
  

  Analysis begun on:  Mon Feb 27 13:40:48 2023
  Analysis ended on:  Mon Feb 27 13:40:52 2023
  Total elapsed time: 00:00:04