
  OWA STORM WATER MANAGEMENT MODEL - VERSION v5.1.14 (OWA 2023-01-25)
  --------------------------------------------------------------

  WARNING 04: minimum elevation drop used for Conduit WS02004404WS02004405
  WARNING 03: negative offset ignored for Link YS02001904YS02001907
  
  *********************************************************
  NOTE: The summary statistics displayed in this report are
  based on results found at every computational time step,  
  not just on results from each reporting time step.
  *********************************************************
  
  ****************
  Analysis Options
  ****************
  Flow Units ............... LPS
  Process Models:
    Rainfall/Runoff ........ YES
    RDII ................... NO
    Snowmelt ............... NO
    Groundwater ............ NO
    Flow Routing ........... YES
    Ponding Allowed ........ NO
    Water Quality .......... NO
  Infiltration Method ...... HORTON
  Flow Routing Method ...... DYNWAVE
  Surcharge Method ......... EXTRAN
  Starting Date ............ 08/28/2015 08:00:00
  Ending Date .............. 08/28/2015 16:00:00
  Antecedent Dry Days ...... 8.0
  Report Time Step ......... 00:01:00
  Wet Time Step ............ 00:01:00
  Dry Time Step ............ 00:01:00
  Routing Time Step ........ 30.00 sec
  Variable Time Step ....... YES
  Maximum Trials ........... 8
  Number of Threads ........ 1
  Head Tolerance ........... 0.001500 m
  
  
  **************************        Volume         Depth
  Runoff Quantity Continuity     hectare-m            mm
  **************************     ---------       -------
  Total Precipitation ......         2.950        48.704
  Evaporation Loss .........         0.000         0.000
  Infiltration Loss ........         0.233         3.847
  Surface Runoff ...........         2.657        43.860
  Final Storage ............         0.061         1.006
  Continuity Error (%) .....        -0.019
  
  
  **************************        Volume        Volume
  Flow Routing Continuity        hectare-m      10^6 ltr
  **************************     ---------     ---------
  Dry Weather Inflow .......         0.630         6.296
  Wet Weather Inflow .......         2.657        26.570
  Groundwater Inflow .......         0.000         0.000
  RDII Inflow ..............         0.000         0.000
  External Inflow ..........         0.105         1.045
  External Outflow .........         2.311        23.110
  Flooding Loss ............         1.073        10.727
  Evaporation Loss .........         0.000         0.000
  Exfiltration Loss ........         0.000         0.000
  Initial Stored Volume ....         0.303         3.031
  Final Stored Volume ......         0.323         3.227
  Continuity Error (%) .....        -0.333
  
  
  *************************
  Highest Continuity Errors
  *************************
  Node YS02001884 (5.21%)
  Node YS02001583 (-4.89%)
  Node WS02006256 (-2.07%)
  Node HS02004842 (1.88%)
  Node YS02001774 (1.55%)
  
  
  ***************************
  Time-Step Critical Elements
  ***************************
  Link WS02006280WS02006229 (29.61%)
  Link WS02006252WS02006251 (17.75%)
  Link WS02006238WS02006235 (15.60%)
  Link WS02004404WS02004405 (11.47%)
  Link WS02003066WSF200 (6.40%)
  
  
  ********************************
  Highest Flow Instability Indexes
  ********************************
  Link WS02006113WS02006111 (37)
  Link WS02006111WS02006112 (25)
  Link WS02006256WS02006235 (24)
  Link WS02006238WS02006235 (23)
  Link WS02006252WS02006251 (22)
  
  
  *************************
  Routing Time Step Summary
  *************************
  Minimum Time Step           :     0.00 sec
  Average Time Step           :     2.16 sec
  Maximum Time Step           :     6.46 sec
  Percent in Steady State     :    -0.00
  Average Iterations per Step :     3.69
  Percent Not Converging      :    17.49
  
  
  ***************************
  Subcatchment Runoff Summary
  ***************************
  
  ------------------------------------------------------------------------------------------------------------------------------
                            Total      Total      Total      Total     Imperv       Perv      Total       Total     Peak  Runoff
                           Precip      Runon       Evap      Infil     Runoff     Runoff     Runoff      Runoff   Runoff   Coeff
  Subcatchment                 mm         mm         mm         mm         mm         mm         mm    10^6 ltr      LPS
  ------------------------------------------------------------------------------------------------------------------------------
  sub0                      48.70       0.00       0.00       0.97      44.04       2.44      46.48        0.04    27.59   0.954
  sub1                      48.70       0.00       0.00       1.65      42.10       3.71      45.81        0.30   186.50   0.941
  sub10                     48.70       0.00       0.00       1.16      43.52       2.74      46.26        0.51   317.77   0.950
  sub11                     48.70       0.00       0.00       1.14      43.54       2.75      46.30        0.54   350.83   0.951
  sub12                     48.70       0.00       0.00       1.86      41.19       4.47      45.67        0.40   283.45   0.938
  sub14                     48.70       0.00       0.00       1.30      43.06       3.08      46.14        0.44   280.53   0.947
  sub15                     48.70       0.00       0.00       5.13      33.12       9.48      42.60        0.73   431.71   0.875
  sub16                     48.70       0.00       0.00       5.30      31.72      10.77      42.49        0.44   288.49   0.873
  sub17                     48.70       0.00       0.00       5.17      32.19      10.42      42.61        0.37   234.46   0.875
  sub2                      48.70       0.00       0.00       7.31      29.78      10.71      40.49        0.38   188.55   0.831
  sub22                     48.70       0.00       0.00       7.78      26.98      13.16      40.14        2.54  1431.47   0.824
  sub23                     48.70       0.00       0.00       6.35      29.82      11.68      41.50        1.98  1188.05   0.852
  sub3                      48.70       0.00       0.00       7.91      29.74      10.12      39.85        0.90   407.19   0.818
  sub4                      48.70       0.00       0.00       1.84      41.93       3.51      45.44        0.95   453.05   0.933
  sub5                      48.70       0.00       0.00       1.01      43.99       2.40      46.39        0.53   321.68   0.952
  sub60                     48.70       0.00       0.00       1.75      41.65       4.10      45.75        0.60   397.79   0.939
  sub61                     48.70       0.00       0.00       2.54      39.29       5.74      45.03        0.83   551.57   0.925
  sub62                     48.70       0.00       0.00       1.17      43.52       2.73      46.25        1.27   779.52   0.950
  sub63                     48.70       0.00       0.00       4.70      33.61       9.42      43.03        0.98   616.98   0.883
  sub64                     48.70       0.00       0.00       2.38      40.19       4.93      45.12        1.08   633.47   0.926
  sub65                     48.70       0.00       0.00       2.06      41.12       4.28      45.39        1.25   707.04   0.932
  sub66                     48.70       0.00       0.00       5.81      33.50       8.31      41.82        1.95   916.91   0.859
  sub67                     48.70       0.00       0.00       1.12      43.56       2.78      46.33        0.86   602.53   0.951
  sub68                     48.70       0.00       0.00       2.10      40.69       4.72      45.41        1.25   797.12   0.932
  sub69                     48.70       0.00       0.00       1.87      41.28       5.44      46.72        1.73   941.74   0.959
  sub7                      48.70       0.00       0.00       1.28      43.07       3.10      46.17        0.16   104.10   0.948
  sub70                     48.70       0.00       0.00       6.21      31.98      10.35      42.33        1.22   515.53   0.869
  sub71                     48.70       0.00       0.00       1.20      43.48       2.70      46.18        1.21   686.52   0.948
  sub72                     48.70       0.00       0.00       1.07      43.89       2.34      46.23        0.64   331.55   0.949
  sub8                      48.70       0.00       0.00       1.30      43.06       3.09      46.15        0.29   190.50   0.948
  sub9                      48.70       0.00       0.00       1.30      43.06       3.08      46.14        0.22   142.50   0.947
  
  
  ******************
  Node Depth Summary
  ******************
  
  ---------------------------------------------------------------------------------
                                 Average  Maximum  Maximum  Time of Max    Reported
                                   Depth    Depth      HGL   Occurrence   Max Depth
  Node                 Type       Meters   Meters   Meters  days hr:min      Meters
  ---------------------------------------------------------------------------------
  HS02004478           JUNCTION     0.19     1.55    10.78     0  02:13        1.54
  HS02004479           JUNCTION     0.26     1.68    10.88     0  02:10        1.68
  HS02004480           JUNCTION     0.23     1.65    10.89     0  02:10        1.63
  HS02004770           JUNCTION     0.24     1.42    11.25     0  02:07        1.42
  HS02004777           JUNCTION     0.26     1.48    11.28     0  02:07        1.48
  HS02004785           JUNCTION     0.16     1.45    11.35     0  02:07        1.42
  HS02004788           JUNCTION     0.13     1.42    11.32     0  02:07        1.39
  HS02004792           JUNCTION     0.17     1.60    11.12     0  02:08        1.60
  HS02004799           JUNCTION     0.29     1.76    10.97     0  02:08        1.76
  HS02004802           JUNCTION     0.29     1.75    10.88     0  02:10        1.71
  HS02004807           JUNCTION     0.25     1.86    11.03     0  02:10        1.78
  HS02004817           JUNCTION     0.56     2.32    11.17     0  02:10        2.14
  HS02004824           JUNCTION     0.13     1.89    11.30     0  02:10        1.63
  HS02004830           JUNCTION     0.13     1.92    11.39     0  02:10        1.58
  HS02004837           JUNCTION     0.11     1.89    11.47     0  02:10        1.47
  HS02004842           JUNCTION     0.40     2.22    11.49     0  02:10        1.79
  HS02004848           JUNCTION     0.09     2.04    11.64     0  02:10        1.46
  HS02004852           JUNCTION     0.09     2.12    11.63     0  02:10        1.50
  HS02004856           JUNCTION     0.15     2.07    11.50     0  02:10        1.55
  HS02004862           JUNCTION     0.11     2.00    11.38     0  02:10        1.53
  HS02004870           JUNCTION     0.10     2.10    11.39     0  02:10        1.53
  HS02004876           JUNCTION     0.15     2.26    11.29     0  02:10        1.65
  HS02004881           JUNCTION     0.09     2.15    11.18     0  02:10        1.46
  HS02004901           JUNCTION     0.24     1.42    11.24     0  02:07        1.42
  WS02001211           JUNCTION     0.64     0.81     5.64     0  02:17        0.81
  WS02001212           JUNCTION     0.38     0.57     5.63     0  02:17        0.57
  WS02001213           JUNCTION     0.60     0.86     5.62     0  02:17        0.86
  WS02003059           JUNCTION     0.67     0.93     5.62     0  02:16        0.93
  WS02003060           JUNCTION     0.39     0.68     5.61     0  02:15        0.68
  WS02003066           JUNCTION     0.24     0.45     6.00     0  02:14        0.45
  WS02003067           JUNCTION     0.57     0.88     6.20     0  02:13        0.88
  WS02003069           JUNCTION     0.44     0.77     5.36     0  02:16        0.77
  WS02003072           JUNCTION     0.50     0.81     5.18     0  02:16        0.81
  WS02003073           JUNCTION     0.30     0.51     4.58     0  02:17        0.51
  WS02004138           JUNCTION     0.13     0.14     7.39     0  00:32        0.14
  WS02004139           JUNCTION     0.57     0.74     5.65     0  02:17        0.74
  WS02004401           JUNCTION     0.79     1.80     7.80     0  02:13        1.80
  WS02004402           JUNCTION     0.81     1.75     7.71     0  02:13        1.74
  WS02004403           JUNCTION     0.82     1.68     7.61     0  02:13        1.67
  WS02004404           JUNCTION     0.88     1.69     7.54     0  02:14        1.68
  WS02004405           JUNCTION     0.87     1.64     7.49     0  02:12        1.64
  WS02004406           JUNCTION     0.86     1.54     7.37     0  02:13        1.53
  WS02004407           JUNCTION     0.27     0.89     7.20     0  02:13        0.89
  WS02004409           JUNCTION     0.56     1.36     7.13     0  02:14        1.35
  WS02004410           JUNCTION     0.57     1.28     7.00     0  02:14        1.27
  WS02004411           JUNCTION     0.57     1.19     6.87     0  02:14        1.19
  WS02004412           JUNCTION     0.57     1.09     6.73     0  02:14        1.09
  WS02004413           JUNCTION     0.71     1.14     6.61     0  02:14        1.14
  WS02006109           JUNCTION     1.00     2.64     9.26     0  02:07        2.64
  WS02006110           JUNCTION     0.93     2.37     8.96     0  02:13        2.37
  WS02006111           JUNCTION     0.41     1.68     8.39     0  02:13        1.67
  WS02006112           JUNCTION     1.01     2.31     8.19     0  02:13        2.30
  WS02006113           JUNCTION     0.50     1.79     8.68     0  02:12        1.78
  WS02006115           JUNCTION     0.71     1.89     8.03     0  02:13        1.89
  WS02006116           JUNCTION     0.78     1.89     7.93     0  02:14        1.88
  WS02006228           JUNCTION     1.05     3.03     9.68     0  02:08        3.03
  WS02006229           JUNCTION     1.05     3.22     9.91     0  02:10        3.22
  WS02006230           JUNCTION     1.01     2.65     9.39     0  02:04        2.65
  WS02006231           JUNCTION     0.73     2.19     9.31     0  02:10        2.19
  WS02006232           JUNCTION     0.84     2.18     9.22     0  02:04        2.18
  WS02006234           JUNCTION     0.74     1.96     9.12     0  02:04        1.96
  WS02006235           JUNCTION     0.76     1.98     9.15     0  02:10        1.95
  WS02006238           JUNCTION     0.78     2.00     9.14     0  02:10        1.95
  WS02006239           JUNCTION     0.74     1.85     9.06     0  02:10        1.81
  WS02006240           JUNCTION     0.69     1.67     8.96     0  04:40        1.64
  WS02006242           JUNCTION     0.75     1.55     8.82     0  01:49        1.55
  WS02006243           JUNCTION     0.65     1.42     8.84     0  04:40        1.37
  WS02006245           JUNCTION     0.63     1.46     8.95     0  04:56        1.46
  WS02006247           JUNCTION     0.65     1.47     8.97     0  04:56        1.47
  WS02006248           JUNCTION     0.60     1.10     8.69     0  01:50        1.10
  WS02006249           JUNCTION     0.62     1.09     8.69     0  01:50        1.09
  WS02006251           JUNCTION     0.70     2.21     9.88     0  02:10        2.08
  WS02006252           JUNCTION     0.46     1.50     9.74     0  00:00        1.50
  WS02006253           JUNCTION     0.76     3.52    11.16     0  02:10        2.76
  WS02006256           JUNCTION     1.05     2.35     9.28     0  00:00        2.35
  WS02006280           JUNCTION     0.25     1.74    10.01     0  02:10        1.73
  WS02006284           JUNCTION     0.51     1.92    10.32     0  02:13        1.92
  WS02006287           JUNCTION     0.25     1.71    10.66     0  02:13        1.70
  WSF200               JUNCTION     0.24     0.51     5.75     0  02:15        0.51
  YS02001580           JUNCTION     0.06     1.05     9.59     0  02:07        0.77
  YS02001583           JUNCTION     0.09     1.00     9.50     0  02:07        0.82
  YS02001586           JUNCTION     0.16     1.13     9.30     0  02:07        1.13
  YS02001590           JUNCTION     0.25     1.37     9.23     0  02:07        1.37
  YS02001593           JUNCTION     0.18     1.30     9.17     0  02:07        1.29
  YS02001596           JUNCTION     0.25     1.66     9.08     0  02:07        1.65
  YS02001600           JUNCTION     0.31     1.86     8.99     0  02:07        1.86
  YS02001601           JUNCTION     0.50     2.06     8.90     0  02:06        2.06
  YS02001602           JUNCTION     0.42     1.87     8.77     0  02:07        1.87
  YS02001605           JUNCTION     0.39     1.78     8.68     0  02:07        1.78
  YS02001607           JUNCTION     0.39     1.66     8.50     0  02:07        1.66
  YS02001610           JUNCTION     0.43     1.68     8.48     0  02:07        1.68
  YS02001613           JUNCTION     0.39     1.67     8.51     0  02:07        1.67
  YS02001616           JUNCTION     0.32     1.60     8.51     0  02:09        1.58
  YS02001619           JUNCTION     0.30     1.59     8.52     0  02:09        1.58
  YS02001622           JUNCTION     0.29     1.56     8.46     0  02:11        1.55
  YS02001625           JUNCTION     0.54     1.78     8.38     0  02:09        1.78
  YS02001629           JUNCTION     0.40     1.85     8.40     0  02:10        1.85
  YS02001633           JUNCTION     0.48     2.01     8.47     0  02:11        1.99
  YS02001641           JUNCTION     0.46     1.95     8.39     0  02:11        1.93
  YS02001644           JUNCTION     0.46     1.92     8.35     0  02:11        1.92
  YS02001647           JUNCTION     0.25     1.75     8.36     0  02:12        1.70
  YS02001649           JUNCTION     0.29     1.98     8.37     0  02:12        1.90
  YS02001652           JUNCTION     0.19     1.86     8.46     0  02:12        1.73
  YS02001655           JUNCTION     0.14     1.74     8.59     0  02:11        1.51
  YS02001658           JUNCTION     0.10     1.67     8.81     0  02:11        1.26
  YS02001661           JUNCTION     0.13     1.37     8.77     0  02:12        1.04
  YS02001664           JUNCTION     0.05     0.57     8.50     0  02:12        0.52
  YS02001745           JUNCTION     0.05     0.76     8.28     0  02:12        0.67
  YS02001748           JUNCTION     0.09     1.70     8.78     0  02:12        1.11
  YS02001751           JUNCTION     0.12     1.70     8.58     0  02:12        1.30
  YS02001754           JUNCTION     0.16     1.75     8.36     0  02:12        1.56
  YS02001757           JUNCTION     0.32     2.00     8.26     0  02:12        1.90
  YS02001759           JUNCTION     0.27     1.96     8.32     0  02:12        1.88
  YS02001762           JUNCTION     0.26     1.93     8.33     0  02:12        1.86
  YS02001765           JUNCTION     0.24     1.92     8.37     0  02:12        1.84
  YS02001767           JUNCTION     0.23     1.90     8.39     0  02:12        1.82
  YS02001770           JUNCTION     0.24     1.95     8.45     0  02:10        1.87
  YS02001774           JUNCTION     0.31     1.98     8.40     0  02:12        1.95
  YS02001779           JUNCTION     0.14     1.68     8.37     0  02:10        1.68
  YS02001783           JUNCTION     0.21     1.34     7.48     0  02:10        1.23
  YS02001784           JUNCTION     0.23     1.18     7.25     0  02:10        1.11
  YS02001786           JUNCTION     0.19     0.92     6.95     0  02:10        0.87
  YS02001788           JUNCTION     0.14     0.62     6.60     0  02:13        0.62
  YS02001790           JUNCTION     0.17     0.73     6.37     0  02:13        0.72
  YS02001791           JUNCTION     0.11     0.44     5.91     0  02:13        0.43
  YS02001793           JUNCTION     0.06     0.30     5.13     0  02:20        0.28
  YS02001882           JUNCTION     0.27     1.69     8.40     0  02:10        1.63
  YS02001884           JUNCTION     0.35     1.78     8.39     0  02:10        1.72
  YS02001887           JUNCTION     0.43     1.83     8.37     0  02:10        1.81
  YS02001890           JUNCTION     0.46     1.81     8.32     0  02:10        1.81
  YS02001895           JUNCTION     0.24     1.57     8.31     0  02:12        1.56
  YS02001898           JUNCTION     0.24     1.56     8.30     0  02:10        1.56
  YS02001901           JUNCTION     0.35     1.68     8.29     0  02:11        1.67
  YS02001904           JUNCTION     0.33     1.64     8.27     0  02:10        1.63
  YS02001907           JUNCTION     0.65     1.96     8.25     0  02:10        1.96
  YS02001910           JUNCTION     0.45     1.98     8.48     0  02:11        1.98
  YS02001915           JUNCTION     0.26     1.92     8.64     0  02:11        1.92
  YS02001918           JUNCTION     0.13     1.81     8.88     0  02:11        1.81
  YS02001920           JUNCTION     0.21     2.14     9.15     0  02:11        2.14
  YS02001923           JUNCTION     0.10     2.03     9.29     0  02:11        2.03
  YS02001926           JUNCTION     0.14     1.90     9.35     0  02:11        1.90
  YS02001929           JUNCTION     0.07     1.78     9.47     0  02:11        1.78
  YS02006553           JUNCTION     0.65     2.00     8.28     0  02:10        1.97
  YS02006556           JUNCTION     0.62     2.01     8.32     0  02:10        1.94
  YS02006558           JUNCTION     0.66     2.06     8.32     0  02:10        1.98
  YS02006561           JUNCTION     0.13     1.04     7.70     0  02:10        0.89
  YS02163301           JUNCTION     0.42     1.91     8.43     0  02:11        1.91
  YS02163601           JUNCTION     0.52     2.04     8.44     0  02:11        2.00
  YS02164001           JUNCTION     0.45     1.95     8.41     0  02:11        1.93
  YSB1154              JUNCTION     0.39     2.01    11.07     0  02:08        2.01
  YSB1171              JUNCTION     0.54     1.95    10.85     0  02:08        1.95
  YSB1174              JUNCTION     0.35     1.86    10.97     0  02:08        1.86
  YSB6556              JUNCTION     0.29     1.80    10.97     0  02:08        1.80
  CC-1                 OUTFALL      0.00     0.00     0.00     0  00:00        0.00
  CC-2                 OUTFALL      0.00     0.00     0.00     0  00:00        0.00
  JK-1                 OUTFALL      0.00     0.00     0.00     0  00:00        0.00
  JK-2                 OUTFALL      0.00     0.00     0.00     0  00:00        0.00
  WSC                  OUTFALL      0.30     0.51     1.18     0  02:17        0.51
  CC-storage           STORAGE      0.81     1.59     7.09     0  02:34        1.59
  JK-storage           STORAGE      1.40     4.22     5.02     0  02:11        4.20
  XR-storage           STORAGE      7.89     9.26     7.26     0  08:00        9.26
  
  
  *******************
  Node Inflow Summary
  *******************
  
  -------------------------------------------------------------------------------------------------
                                  Maximum  Maximum                  Lateral       Total        Flow
                                  Lateral    Total  Time of Max      Inflow      Inflow     Balance
                                   Inflow   Inflow   Occurrence      Volume      Volume       Error
  Node                 Type           LPS      LPS  days hr:min    10^6 ltr    10^6 ltr     Percent
  -------------------------------------------------------------------------------------------------
  HS02004478           JUNCTION      0.00  2273.35     0  02:13           0        7.32      -0.009
  HS02004479           JUNCTION      0.00   438.91     0  02:10           0       0.711       0.115
  HS02004480           JUNCTION      0.00  2101.20     0  02:09           0        5.55       0.043
  HS02004770           JUNCTION   1188.05  1188.05     0  02:14        1.98         2.2       0.141
  HS02004777           JUNCTION      0.03   744.64     0  02:07    0.000864        1.67       0.309
  HS02004785           JUNCTION      0.15   762.67     0  02:07     0.00432        1.67       0.022
  HS02004788           JUNCTION    433.38   919.92     0  02:07       0.781        2.45       0.011
  HS02004792           JUNCTION   1431.75  2179.74     0  02:14        2.54        4.99       0.008
  HS02004799           JUNCTION    280.53  1737.21     0  02:08       0.439        4.88       0.051
  HS02004802           JUNCTION      0.00   942.71     0  02:14           0         1.8       0.212
  HS02004807           JUNCTION    350.83   942.59     0  02:14       0.538        1.85       0.225
  HS02004817           JUNCTION      0.60   594.82     0  02:14      0.0173        1.37       1.217
  HS02004824           JUNCTION    453.10   651.31     0  02:08       0.949        1.52       0.039
  HS02004830           JUNCTION      0.15   648.48     0  02:08     0.00432       0.744       0.125
  HS02004837           JUNCTION    324.12   837.32     0  02:08       0.693        1.06       0.059
  HS02004842           JUNCTION      0.00   836.61     0  02:08           0        0.69       1.913
  HS02004848           JUNCTION    407.19  1081.47     0  02:10       0.897        1.43      -0.031
  HS02004852           JUNCTION      0.00  1046.86     0  02:10           0        1.29      -0.017
  HS02004856           JUNCTION    142.50  1101.99     0  02:10       0.222        1.51       0.028
  HS02004862           JUNCTION    188.75  1207.47     0  02:10       0.383        1.89      -0.065
  HS02004870           JUNCTION    190.50  1327.74     0  02:10       0.295        2.19       0.000
  HS02004876           JUNCTION    186.50  1320.19     0  02:10       0.305        2.49       0.025
  HS02004881           JUNCTION    104.10  1406.93     0  02:10       0.156        2.65       0.002
  HS02004901           JUNCTION    288.49   527.71     0  02:14       0.445       0.655       0.267
  WS02001211           JUNCTION      7.35   207.04     0  02:50       0.212        5.44       0.611
  WS02001212           JUNCTION      0.00   215.97     0  02:50           0        5.41       0.289
  WS02001213           JUNCTION      0.00   220.63     0  02:49           0        5.39       0.334
  WS02003059           JUNCTION      0.00   226.92     0  02:49           0        5.38       0.597
  WS02003060           JUNCTION     16.53  1483.21     0  02:15       0.476        15.7       0.094
  WS02003066           JUNCTION      0.00  1280.52     0  02:14           0        9.88       0.017
  WS02003067           JUNCTION      0.00  1280.67     0  02:14           0        9.89       0.045
  WS02003069           JUNCTION      0.32  1483.40     0  02:16     0.00922        15.7       0.100
  WS02003072           JUNCTION      0.00  1483.27     0  02:16           0        15.7       0.135
  WS02003073           JUNCTION      1.82  1485.26     0  02:17      0.0524        15.7       0.141
  WS02004138           JUNCTION      0.00   380.00     0  00:00           0        5.25       0.054
  WS02004139           JUNCTION      0.32   190.32     0  00:32     0.00924        5.26       0.509
  WS02004401           JUNCTION      0.00  1281.31     0  02:13           0          10       0.108
  WS02004402           JUNCTION      0.00  1281.09     0  02:13           0        9.99       0.109
  WS02004403           JUNCTION      0.00  1281.03     0  02:13           0        9.98       0.107
  WS02004404           JUNCTION      0.16  1281.46     0  02:13     0.00467        9.97       0.093
  WS02004405           JUNCTION      0.04  1281.51     0  02:13      0.0011        9.96       0.124
  WS02004406           JUNCTION      0.00  1281.50     0  02:13           0        9.95       0.218
  WS02004407           JUNCTION      0.00  1281.46     0  02:13           0        9.93       0.016
  WS02004409           JUNCTION      0.00  1280.50     0  02:14           0        9.93       0.035
  WS02004410           JUNCTION      0.00  1280.59     0  02:14           0        9.92       0.051
  WS02004411           JUNCTION      0.00  1280.56     0  02:14           0        9.92       0.063
  WS02004412           JUNCTION      0.00  1280.42     0  02:14           0        9.91       0.083
  WS02004413           JUNCTION      0.00  1280.55     0  02:14           0         9.9       0.149
  WS02006109           JUNCTION      1.23  1274.00     0  02:14      0.0354        9.83       0.102
  WS02006110           JUNCTION      0.00  1123.33     0  02:26           0        9.67       0.086
  WS02006111           JUNCTION      0.00  1123.32     0  02:26           0        9.66       0.005
  WS02006112           JUNCTION    234.46  1280.51     0  02:13       0.366          10       0.185
  WS02006113           JUNCTION      0.00  1123.45     0  02:26           0        9.66       0.035
  WS02006115           JUNCTION      0.00  1280.78     0  02:13           0          10       0.071
  WS02006116           JUNCTION      0.00  1280.82     0  02:13           0          10       0.026
  WS02006228           JUNCTION      0.00  1272.99     0  02:14           0         9.8       0.043
  WS02006229           JUNCTION      0.00  2274.54     0  02:14           0        11.6       0.073
  WS02006230           JUNCTION     10.28  1010.70     0  02:14       0.296        6.11       0.143
  WS02006231           JUNCTION      0.00   561.88     0  04:00           0        5.14      -0.030
  WS02006232           JUNCTION      0.00   561.47     0  04:00           0        5.15       0.146
  WS02006234           JUNCTION      0.00   558.47     0  04:00           0        5.14      -0.134
  WS02006235           JUNCTION      0.00   551.77     0  04:00           0        5.13       0.153
  WS02006238           JUNCTION      0.00   428.65     0  04:16           0        4.87      -0.164
  WS02006239           JUNCTION      0.00   429.80     0  04:16           0        4.84      -0.108
  WS02006240           JUNCTION      0.00   427.97     0  04:16           0        4.82      -0.019
  WS02006242           JUNCTION      0.00   428.04     0  04:10           0        4.82       0.014
  WS02006243           JUNCTION      0.00   429.83     0  04:10           0        4.51      -0.191
  WS02006245           JUNCTION      0.00   429.84     0  04:10           0        4.53       0.301
  WS02006247           JUNCTION      0.00   429.29     0  04:10           0        4.53       0.017
  WS02006248           JUNCTION      0.00   430.77     0  04:10           0        4.74      -0.009
  WS02006249           JUNCTION      0.00  1342.11     0  02:10           0        7.39       0.134
  WS02006251           JUNCTION      0.08  1440.42     0  02:10     0.00222        7.48      -0.024
  WS02006252           JUNCTION      0.00   501.70     0  02:10           0        5.02      -0.300
  WS02006253           JUNCTION     27.59  1435.43     0  02:10      0.0377        2.76       0.042
  WS02006256           JUNCTION      0.00   300.00     0  00:00           0       0.865      -2.024
  WS02006280           JUNCTION      0.00  2273.05     0  02:14           0        7.31       0.000
  WS02006284           JUNCTION      0.10  2273.28     0  02:14     0.00275        7.31       0.018
  WS02006287           JUNCTION      0.00  2274.04     0  02:13           0        7.31       0.010
  WSF200               JUNCTION      0.00  1280.60     0  02:14           0        9.88       0.008
  YS02001580           JUNCTION      0.00   107.30     0  02:07           0     0.00412      -1.039
  YS02001583           JUNCTION      0.00   155.68     0  02:06           0      0.0151      -4.664
  YS02001586           JUNCTION    515.53   515.64     0  02:15        1.22        1.23       0.105
  YS02001590           JUNCTION      0.00   318.10     0  02:16           0         1.1      -0.036
  YS02001593           JUNCTION      0.00   318.01     0  02:20           0         1.1       0.004
  YS02001596           JUNCTION      0.00   317.98     0  02:17           0         1.1      -0.005
  YS02001600           JUNCTION      0.00   318.05     0  02:18           0         1.1       0.013
  YS02001601           JUNCTION    941.74  1259.08     0  02:14        1.73        2.83       0.032
  YS02001602           JUNCTION      0.00   513.73     0  02:06           0        1.98       0.024
  YS02001605           JUNCTION      0.00   513.04     0  02:06           0         1.9       0.025
  YS02001607           JUNCTION      0.00   512.97     0  02:06           0         1.9       0.101
  YS02001610           JUNCTION      0.00   514.44     0  02:06           0        1.92       0.114
  YS02001613           JUNCTION      0.00   516.64     0  02:06           0        1.64       0.099
  YS02001616           JUNCTION      0.00   510.05     0  02:06           0        1.64       0.021
  YS02001619           JUNCTION    916.91   921.61     0  02:09        1.95        3.57      -0.002
  YS02001622           JUNCTION      0.00   920.56     0  02:09           0        3.55       0.003
  YS02001625           JUNCTION      0.00  1036.52     0  02:16           0         3.6       0.253
  YS02001629           JUNCTION      0.00   921.86     0  02:09           0        3.03       0.026
  YS02001633           JUNCTION    707.24  1362.96     0  02:09        1.26        4.22       0.082
  YS02001641           JUNCTION      0.00  1364.78     0  02:09           0        4.17       0.066
  YS02001644           JUNCTION    633.51  1765.29     0  02:09        1.08        5.25       0.063
  YS02001647           JUNCTION      0.00  1770.04     0  02:09           0        5.16       0.007
  YS02001649           JUNCTION      0.00  1968.04     0  02:08           0        6.14       0.001
  YS02001652           JUNCTION      0.00   738.62     0  02:13           0       0.982      -0.097
  YS02001655           JUNCTION      0.15   738.33     0  02:13     0.00443       0.982       0.053
  YS02001658           JUNCTION      0.00   736.48     0  02:13           0       0.977      -0.061
  YS02001661           JUNCTION      0.00   770.52     0  02:12           0       0.977      -0.025
  YS02001664           JUNCTION    616.98   616.98     0  02:14       0.977       0.977      -0.008
  YS02001745           JUNCTION    397.79   397.79     0  02:13       0.601       0.601       0.234
  YS02001748           JUNCTION      0.04   580.64     0  02:12      0.0013       0.602      -0.390
  YS02001751           JUNCTION      0.01   441.95     0  02:12    0.000317        0.61       0.133
  YS02001754           JUNCTION      0.26   443.13     0  02:12     0.00749       0.624      -0.220
  YS02001757           JUNCTION      0.00  3232.20     0  02:12           0        8.86       0.030
  YS02001759           JUNCTION    551.61  1258.60     0  02:14       0.827         2.1      -0.011
  YS02001762           JUNCTION      0.00   734.82     0  02:15           0        1.28       0.001
  YS02001765           JUNCTION      0.00   734.45     0  02:15           0        1.28       0.009
  YS02001767           JUNCTION      0.54   734.63     0  02:15      0.0154        1.27      -0.017
  YS02001770           JUNCTION    779.67   779.67     0  02:14        1.27        1.31      -0.006
  YS02001774           JUNCTION      0.00   384.22     0  02:10           0      0.0714       1.573
  YS02001779           JUNCTION      0.01   400.18     0  02:10    0.000144      0.0286      -2.457
  YS02001783           JUNCTION      0.00  1157.84     0  02:13           0        3.41       0.007
  YS02001784           JUNCTION      1.06  1158.98     0  02:12      0.0305        3.44       0.014
  YS02001786           JUNCTION      0.06  1158.50     0  02:12     0.00162        3.44       0.019
  YS02001788           JUNCTION      0.07  1158.62     0  02:12     0.00204        3.45       0.009
  YS02001790           JUNCTION      0.15  1168.93     0  02:12     0.00446        3.45       0.028
  YS02001791           JUNCTION      0.00  1292.72     0  02:13           0        3.45      -0.030
  YS02001793           JUNCTION      0.00  1233.76     0  02:20           0        3.45       0.007
  YS02001882           JUNCTION      0.00    49.18     0  02:08           0      0.0124       4.662
  YS02001884           JUNCTION      0.00    78.07     0  02:08           0      0.0482       5.494
  YS02001887           JUNCTION    602.98   604.55     0  02:13       0.875       0.908       0.496
  YS02001890           JUNCTION      0.00   603.70     0  02:13           0       0.867       0.599
  YS02001895           JUNCTION      0.00   516.38     0  02:15           0       0.846       0.167
  YS02001898           JUNCTION      0.00   516.07     0  02:15           0       0.844       0.028
  YS02001901           JUNCTION      0.00   516.34     0  02:15           0       0.847       0.386
  YS02001904           JUNCTION      0.00   516.18     0  02:15           0       0.851       0.324
  YS02001907           JUNCTION      0.00  1572.28     0  02:15           0        2.77       0.654
  YS02001910           JUNCTION      0.00  1056.57     0  02:15           0        1.93       0.372
  YS02001915           JUNCTION    686.54  1055.59     0  02:15        1.21        1.96       0.073
  YS02001918           JUNCTION      0.00   445.23     0  02:11           0       0.784       0.025
  YS02001920           JUNCTION      2.87   444.23     0  02:11      0.0827       0.767       0.067
  YS02001923           JUNCTION      0.04   418.58     0  02:11     0.00109       0.669      -0.126
  YS02001926           JUNCTION      0.05   561.14     0  02:10      0.0015       0.648      -0.042
  YS02001929           JUNCTION    331.55   334.90     0  02:10       0.636       0.637      -0.080
  YS02006553           JUNCTION      0.00   797.29     0  02:26           0        2.18       0.544
  YS02006556           JUNCTION      0.00   797.73     0  02:26           0        2.19       0.364
  YS02006558           JUNCTION    798.00  1158.87     0  02:12        1.28        3.44       0.105
  YS02006561           JUNCTION      0.00  1157.67     0  02:13           0        3.41      -0.002
  YS02163301           JUNCTION      0.00   923.96     0  02:09           0        3.02       0.055
  YS02163601           JUNCTION      0.11  1363.40     0  02:09     0.00317        4.17       0.116
  YS02164001           JUNCTION      0.00  1363.48     0  02:09           0        4.17       0.056
  YSB1154              JUNCTION    321.68   321.68     0  02:14       0.526       0.526       0.274
  YSB1171              JUNCTION      0.00   601.69     0  02:13           0       0.933       0.676
  YSB1174              JUNCTION    283.45   283.45     0  02:13       0.399         0.4       0.307
  YSB6556              JUNCTION      0.00   321.79     0  02:14           0       0.527       0.202
  CC-1                 OUTFALL       0.00   683.00     0  00:00           0        2.75       0.000
  CC-2                 OUTFALL       0.00   683.00     0  00:00           0        1.97       0.000
  JK-1                 OUTFALL       0.00  1000.00     0  00:00           0        1.79       0.000
  JK-2                 OUTFALL       0.00  1000.00     0  00:00           0       0.914       0.000
  WSC                  OUTFALL       0.00  1485.85     0  02:17           0        15.7       0.000
  CC-storage           STORAGE       0.00  3235.04     0  02:12           0        11.1      -0.259
  JK-storage           STORAGE       0.00  1268.43     0  02:15           0         3.6      -0.478
  XR-storage           STORAGE     200.00   200.00     0  00:00        5.76        6.36       0.001
  
  
  **********************
  Node Surcharge Summary
  **********************
  
  Surcharging occurs when water rises above the top of the highest conduit.
  ---------------------------------------------------------------------
                                               Max. Height   Min. Depth
                                   Hours       Above Crown    Below Rim
  Node                 Type      Surcharged         Meters       Meters
  ---------------------------------------------------------------------
  HS02004478           JUNCTION        0.35          0.628        0.312
  HS02004479           JUNCTION        0.48          0.878        0.172
  HS02004480           JUNCTION        0.51          0.943        0.157
  HS02004770           JUNCTION        0.42          0.720        0.000
  HS02004777           JUNCTION        0.43          0.780        0.000
  HS02004785           JUNCTION        0.38          0.751        0.039
  HS02004788           JUNCTION        0.37          0.720        0.000
  HS02004792           JUNCTION        0.48          0.900        0.000
  HS02004799           JUNCTION        0.60          1.060        0.000
  HS02004802           JUNCTION        0.52          1.041        0.169
  HS02004807           JUNCTION        0.51          1.162        0.058
  HS02004817           JUNCTION        1.03          1.623        0.117
  HS02004824           JUNCTION        0.38          1.194        0.116
  HS02004830           JUNCTION        0.35          1.218        0.112
  HS02004837           JUNCTION        0.32          1.186        0.154
  HS02004842           JUNCTION        0.44          1.520        0.000
  HS02004848           JUNCTION        0.28          1.339        0.031
  HS02004852           JUNCTION        0.31          1.420        0.000
  HS02004856           JUNCTION        0.29          1.300        0.000
  HS02004862           JUNCTION        0.33          1.300        0.000
  HS02004870           JUNCTION        0.34          1.400        0.000
  HS02004876           JUNCTION        0.41          1.560        0.000
  HS02004881           JUNCTION        0.39          1.450        0.000
  HS02004901           JUNCTION        0.43          0.720        0.000
  WS02004401           JUNCTION        1.42          0.805        0.855
  WS02004402           JUNCTION        1.43          0.754        0.986
  WS02004403           JUNCTION        1.43          0.680        1.350
  WS02004404           JUNCTION        1.58          0.693        2.087
  WS02004405           JUNCTION        1.54          0.639        2.161
  WS02004406           JUNCTION        1.51          0.537        1.913
  WS02004409           JUNCTION        0.83          0.362        1.998
  WS02004410           JUNCTION        0.79          0.275        2.265
  WS02004411           JUNCTION        0.71          0.188        2.342
  WS02004412           JUNCTION        0.62          0.094        2.216
  WS02004413           JUNCTION        1.16          0.138        2.062
  WS02006109           JUNCTION        3.22          1.820        0.000
  WS02006110           JUNCTION        1.93          1.464        0.386
  WS02006111           JUNCTION        1.04          0.874        0.996
  WS02006112           JUNCTION        2.16          1.306        0.374
  WS02006113           JUNCTION        1.06          0.985        0.945
  WS02006115           JUNCTION        1.28          0.880        1.370
  WS02006116           JUNCTION        1.34          0.831        1.459
  WS02006228           JUNCTION        3.20          2.200        0.000
  WS02006229           JUNCTION        0.75          1.038        0.032
  WS02006230           JUNCTION        1.69          1.570        0.000
  WS02006231           JUNCTION        1.90          1.479        0.051
  WS02006232           JUNCTION        3.19          1.480        0.000
  WS02006234           JUNCTION        2.82          1.240        0.000
  WS02006235           JUNCTION        2.97          1.273        0.017
  WS02006238           JUNCTION        3.05          1.279        0.151
  WS02006239           JUNCTION        2.97          1.110        0.180
  WS02006240           JUNCTION        2.99          0.959        0.431
  WS02006242           JUNCTION        3.20          0.820        0.000
  WS02006243           JUNCTION        3.01          0.709        0.061
  WS02006245           JUNCTION        3.01          0.755        0.095
  WS02006247           JUNCTION        3.05          0.760        0.000
  WS02006248           JUNCTION        2.98          0.380        0.000
  WS02006249           JUNCTION        3.02          0.390        0.000
  WS02006251           JUNCTION        2.02          1.180        0.000
  WS02006252           JUNCTION        3.46          1.100        0.000
  WS02006253           JUNCTION        2.13          2.480        0.000
  WS02006256           JUNCTION        7.62          2.050        0.000
  WS02006280           JUNCTION        0.61          0.685        0.095
  WS02006284           JUNCTION        0.54          0.644        0.156
  WS02006287           JUNCTION        0.46          0.706        0.184
  YS02001580           JUNCTION        0.44          0.450        0.000
  YS02001583           JUNCTION        0.45          0.361        0.139
  YS02001586           JUNCTION        0.57          0.510        0.000
  YS02001590           JUNCTION        0.64          0.724        0.026
  YS02001593           JUNCTION        0.64          0.685        0.155
  YS02001596           JUNCTION        0.74          0.934        0.136
  YS02001600           JUNCTION        0.88          1.183        0.007
  YS02001601           JUNCTION        1.23          1.440        0.000
  YS02001602           JUNCTION        1.12          1.270        0.000
  YS02001605           JUNCTION        1.07          1.180        0.000
  YS02001607           JUNCTION        0.61          0.656        0.024
  YS02001610           JUNCTION        0.64          0.680        0.000
  YS02001613           JUNCTION        0.61          0.668        0.032
  YS02001616           JUNCTION        0.57          0.597        0.013
  YS02001619           JUNCTION        0.56          0.590        0.020
  YS02001622           JUNCTION        0.55          0.558        0.062
  YS02001625           JUNCTION        0.72          0.780        0.000
  YS02001629           JUNCTION        0.52          0.470        0.000
  YS02001633           JUNCTION        0.74          0.992        0.068
  YS02001641           JUNCTION        0.68          0.951        0.149
  YS02001644           JUNCTION        0.66          0.920        0.000
  YS02001647           JUNCTION        0.46          0.749        0.151
  YS02001649           JUNCTION        0.56          0.978        0.072
  YS02001652           JUNCTION        0.39          0.835        0.295
  YS02001655           JUNCTION        0.27          0.739        0.461
  YS02001658           JUNCTION        0.12          0.669        0.631
  YS02001661           JUNCTION        0.01          0.296        1.094
  YS02001748           JUNCTION        0.06          0.623        0.567
  YS02001751           JUNCTION        0.18          0.704        0.496
  YS02001754           JUNCTION        0.31          0.700        0.450
  YS02001757           JUNCTION        0.62          0.999        0.211
  YS02001759           JUNCTION        0.53          0.960        0.250
  YS02001762           JUNCTION        0.50          0.930        0.220
  YS02001765           JUNCTION        0.46          0.917        0.183
  YS02001767           JUNCTION        0.43          0.898        0.132
  YS02001770           JUNCTION        0.41          0.920        0.000
  YS02001774           JUNCTION        0.48          0.979        0.071
  YS02001779           JUNCTION        0.32          0.680        0.000
  YS02001783           JUNCTION        0.42          0.543        1.057
  YS02001784           JUNCTION        0.40          0.383        1.107
  YS02001786           JUNCTION        0.30          0.122        1.308
  YS02001882           JUNCTION        0.37          0.687        0.143
  YS02001884           JUNCTION        0.38          0.715        0.155
  YS02001887           JUNCTION        0.41          0.782        0.168
  YS02001890           JUNCTION        0.42          0.760        0.000
  YS02001895           JUNCTION        0.36          0.565        0.185
  YS02001898           JUNCTION        0.35          0.534        0.206
  YS02001901           JUNCTION        0.40          0.677        0.193
  YS02001904           JUNCTION        0.39          0.637        0.213
  YS02001907           JUNCTION        0.63          0.950        0.000
  YS02001910           JUNCTION        0.45          0.978        0.122
  YS02001915           JUNCTION        0.37          0.918        0.082
  YS02001918           JUNCTION        0.29          0.810        0.000
  YS02001920           JUNCTION        0.30          1.140        0.000
  YS02001923           JUNCTION        0.01          0.820        0.000
  YS02001926           JUNCTION        0.02          0.900        0.000
  YS02001929           JUNCTION        0.01          0.780        0.000
  YS02006553           JUNCTION        0.65          1.000        0.190
  YS02006556           JUNCTION        0.54          0.967        0.383
  YS02006558           JUNCTION        0.52          0.956        0.444
  YS02006561           JUNCTION        0.26          0.244        0.906
  YS02163301           JUNCTION        0.73          0.913        0.117
  YS02163601           JUNCTION        0.77          1.039        0.041
  YS02164001           JUNCTION        0.69          0.954        0.146
  YSB1154              JUNCTION        0.70          1.311        0.089
  YSB1171              JUNCTION        0.70          1.100        0.000
  YSB1174              JUNCTION        0.63          1.157        0.093
  YSB6556              JUNCTION        0.57          1.100        0.000
  
  
  *********************
  Node Flooding Summary
  *********************
  
  Flooding refers to all water that overflows a node, whether it ponds or not.
  --------------------------------------------------------------------------
                                                             Total   Maximum
                                 Maximum   Time of Max       Flood    Ponded
                        Hours       Rate    Occurrence      Volume     Depth
  Node                 Flooded       LPS   days hr:min    10^6 ltr    Meters
  --------------------------------------------------------------------------
  HS02004770              0.26    634.31      0  02:14       0.326     0.000
  HS02004777              0.01     21.23      0  02:07       0.000     0.000
  HS02004788              0.01    303.87      0  02:07       0.002     0.000
  HS02004792              0.26   1037.09      0  02:14       0.549     0.000
  HS02004799              0.11    118.99      0  02:13       0.024     0.000
  HS02004842              0.01     38.54      0  02:10       0.000     0.000
  HS02004852              0.01    121.34      0  02:10       0.000     0.000
  HS02004856              0.01    364.42      0  02:10       0.003     0.000
  HS02004862              0.01    127.92      0  02:10       0.001     0.000
  HS02004870              0.01    201.20      0  02:10       0.000     0.000
  HS02004876              0.01    116.49      0  02:10       0.000     0.000
  HS02004881              0.01     59.40      0  02:10       0.000     0.000
  HS02004901              0.32    527.71      0  02:14       0.429     0.000
  WS02006109              0.31    229.42      0  02:14       0.150     0.000
  WS02006228              0.01      2.56      0  02:08       0.000     0.000
  WS02006230              0.55    558.12      0  02:14       0.699     0.000
  WS02006232              0.14      0.74      0  02:10       0.000     0.000
  WS02006234              0.59    128.31      0  02:23       0.188     0.000
  WS02006242              0.71    137.54      0  02:08       0.298     0.000
  WS02006247              0.01      2.05      0  04:56       0.000     0.000
  WS02006248              1.05    339.88      0  02:06       0.974     0.000
  WS02006249              1.80   1280.95      0  02:10       3.403     0.000
  WS02006251              0.01     56.47      0  02:10       0.000     0.000
  WS02006252              0.34    501.49      0  02:10       0.316     0.000
  WS02006253              0.01     94.70      0  02:10       0.000     0.000
  WS02006256              0.80    297.99      0  02:39       0.482     0.000
  YS02001580              0.01     81.91      0  02:07       0.000     0.000
  YS02001586              0.32    198.21      0  02:15       0.126     0.000
  YS02001601              0.51    861.17      0  02:14       0.840     0.000
  YS02001602              0.40     61.97      0  02:18       0.080     0.000
  YS02001605              0.01      2.98      0  02:07       0.000     0.000
  YS02001610              0.34    407.80      0  02:16       0.297     0.000
  YS02001625              0.32   1035.79      0  02:16       0.611     0.000
  YS02001629              0.06    113.11      0  02:13       0.014     0.000
  YS02001644              0.09    430.34      0  02:13       0.081     0.000
  YS02001770              0.01    104.96      0  02:10       0.000     0.000
  YS02001779              0.06    322.59      0  02:10       0.012     0.000
  YS02001890              0.09     95.33      0  02:13       0.016     0.000
  YS02001907              0.24   1187.79      0  02:15       0.577     0.000
  YS02001918              0.01    116.36      0  02:11       0.001     0.000
  YS02001920              0.01     51.87      0  02:11       0.000     0.000
  YS02001923              0.01     55.55      0  02:11       0.000     0.000
  YS02001926              0.01     54.12      0  02:11       0.000     0.000
  YS02001929              0.01    282.07      0  02:11       0.001     0.000
  YSB1171                 0.17    588.78      0  02:14       0.223     0.000
  YSB6556                 0.01     14.15      0  02:08       0.000     0.000
  
  
  **********************
  Storage Volume Summary
  **********************
  
  --------------------------------------------------------------------------------------------------
                         Average     Avg  Evap Exfil       Maximum     Max    Time of Max    Maximum
                          Volume    Pcnt  Pcnt  Pcnt        Volume    Pcnt     Occurrence    Outflow
  Storage Unit           1000 m3    Full  Loss  Loss       1000 m3    Full    days hr:min        LPS
  --------------------------------------------------------------------------------------------------
  CC-storage               2.256      35     0     0         4.422      69       0  02:34    1783.53
  JK-storage               0.070      24     0     0         0.212      73       0  02:11    2300.00
  XR-storage               0.946      66     0     0         1.111      77       0  08:00     380.00
  
  
  ***********************
  Outfall Loading Summary
  ***********************
  
  -----------------------------------------------------------
                         Flow       Avg       Max       Total
                         Freq      Flow      Flow      Volume
  Outfall Node           Pcnt       LPS       LPS    10^6 ltr
  -----------------------------------------------------------
  CC-1                  17.89    683.00    683.00       2.748
  CC-2                  12.83    683.00    683.00       1.967
  JK-1                   8.24   1000.00   1000.00       1.794
  JK-2                   4.64   1000.00   1000.00       0.914
  WSC                   99.95    632.71   1485.85      15.687
  -----------------------------------------------------------
  System                28.71   3998.71   4851.81      23.110
  
  
  ********************
  Link Flow Summary
  ********************
  
  -----------------------------------------------------------------------------
                                 Maximum  Time of Max   Maximum    Max/    Max/
                                  |Flow|   Occurrence   |Veloc|    Full    Full
  Link                 Type          LPS  days hr:min     m/sec    Flow   Depth
  -----------------------------------------------------------------------------
  1                    CONDUIT   1485.85     0  02:17      3.69    0.52    0.51
  HS02004478WS02006287 CONDUIT   2274.04     0  02:13      2.61    0.64    1.00
  HS02004479HS02004480 CONDUIT    437.84     0  02:10      0.63    0.42    1.00
  HS02004480HS02004478 CONDUIT   2110.60     0  02:08      3.02    8.89    1.00
  HS02004770HS02004777 CONDUIT    744.61     0  02:07      1.06    1.36    1.00
  HS02004777HS02004785 CONDUIT    762.52     0  02:07      1.14    0.94    1.00
  HS02004785HS02004788 CONDUIT    700.50     0  02:07      1.35    5.28    1.00
  HS02004788HS02004792 CONDUIT    826.54     0  02:07      1.44    0.55    1.00
  HS02004792HS02004799 CONDUIT   1569.62     0  02:08      2.24    0.96    1.00
  HS02004799HS02004480 CONDUIT   1734.88     0  02:08      2.48    2.19    1.00
  HS02004802HS02004478 CONDUIT    942.55     0  02:14      1.35    0.83    1.00
  HS02004807HS02004802 CONDUIT    942.71     0  02:14      1.35    1.80    1.00
  HS02004817HS02004807 CONDUIT    595.15     0  02:14      0.85    0.35    1.00
  HS02004817HS02004824 CONDUIT    594.22     0  02:14      0.85    0.27    1.00
  HS02004824HS02004830 CONDUIT    648.33     0  02:08      0.94    0.85    1.00
  HS02004830HS02004837 CONDUIT    649.01     0  02:08      1.02    0.65    1.00
  HS02004837HS02004842 CONDUIT    836.61     0  02:08      1.20    0.50    1.00
  HS02004842HS02004848 CONDUIT    836.04     0  02:08      1.33    0.49    1.00
  HS02004848HS02004852 CONDUIT   1046.86     0  02:10      1.62    1.18    1.00
  HS02004852HS02004856 CONDUIT    999.95     0  02:10      1.49    1.14    1.00
  HS02004856HS02004862 CONDUIT   1084.70     0  02:10      1.71    1.08    1.00
  HS02004862HS02004870 CONDUIT   1193.44     0  02:10      1.90    1.29    1.00
  HS02004870HS02004876 CONDUIT   1181.48     0  02:10      1.79    0.78    1.00
  HS02004876HS02004881 CONDUIT   1327.22     0  02:10      2.37   14.12    1.00
  HS02004881HS02006253 CONDUIT   1413.94     0  02:10      2.36    0.28    1.00
  HS02004901HS02004770 CONDUIT    265.68     0  02:23      0.38    1.00    1.00
  WS02001211WS02001212 CONDUIT    215.97     0  02:50      0.54    0.17    0.69
  WS02001212WS02001213 CONDUIT    220.63     0  02:49      1.04    0.34    0.55
  WS02001213WS02003059 CONDUIT    226.92     0  02:49      0.47    0.37    0.89
  WS02003059WS02003060 CONDUIT    234.09     0  02:48      0.66    0.15    0.81
  WS02003060WS02003069 CONDUIT   1483.08     0  02:16      2.08    0.58    0.60
  WS02003066WSF200     CONDUIT   1280.60     0  02:14      3.24    0.22    0.38
  WS02003067WS02003066 CONDUIT   1280.52     0  02:14      1.98    0.41    0.56
  WS02003069WS02003072 CONDUIT   1483.27     0  02:16      1.88    0.71    0.66
  WS02003072WS02003073 CONDUIT   1483.44     0  02:17      2.04    3.20    0.61
  WS02004138WS02004139 CONDUIT    190.00     0  00:32      2.15    0.04    0.41
  WS02004139WS02001211 CONDUIT    199.69     0  02:50      0.54    0.25    0.60
  WS02004401WS02004402 CONDUIT   1281.09     0  02:13      1.63    1.54    1.00
  WS02004402WS02004403 CONDUIT   1281.03     0  02:13      1.63    1.84    1.00
  WS02004403WS02004404 CONDUIT   1281.29     0  02:13      1.63    0.93    1.00
  WS02004404WS02004405 CONDUIT   1281.47     0  02:13      1.63   12.55    1.00
  WS02004405WS02004406 CONDUIT   1281.50     0  02:13      1.63    2.53    1.00
  WS02004406WS02004407 CONDUIT   1281.46     0  02:13      1.71    0.57    0.95
  WS02004407WS02004409 CONDUIT   1280.50     0  02:14      1.77    0.45    0.95
  WS02004409WS02004410 CONDUIT   1280.59     0  02:14      1.63    1.66    1.00
  WS02004410WS02004411 CONDUIT   1280.56     0  02:14      1.63    1.75    1.00
  WS02004411WS02004412 CONDUIT   1280.42     0  02:14      1.63    1.82    1.00
  WS02004412WS02004413 CONDUIT   1280.55     0  02:14      1.63    0.86    1.00
  WS02004413WS02003067 CONDUIT   1280.67     0  02:14      1.99    0.55    0.76
  WS02006109WS02006110 CONDUIT   1123.33     0  02:26      2.23    2.16    1.00
  WS02006110WS02006113 CONDUIT   1123.45     0  02:26      2.24    1.02    1.00
  WS02006111WS02006112 CONDUIT   1123.49     0  02:26      2.24    0.53    1.00
  WS02006112WS02006115 CONDUIT   1280.78     0  02:13      1.63    0.76    1.00
  WS02006113WS02006111 CONDUIT   1123.32     0  02:26      2.62    1.35    1.00
  WS02006115WS02006116 CONDUIT   1280.82     0  02:13      1.63    1.64    1.00
  WS02006116WS02004401 CONDUIT   1281.31     0  02:13      1.63    1.77    1.00
  WS02006228WS02006109 CONDUIT   1272.77     0  02:14      2.53    5.56    1.00
  WS02006229WS02006228 CONDUIT   1272.99     0  02:14      2.53    4.22    1.00
  WS02006230WS02006229 CONDUIT   1000.42     0  02:14      2.60   22.26    1.00
  WS02006231WS02006230 CONDUIT    566.47     0  04:05      1.49    8.59    1.00
  WS02006232WS02006231 CONDUIT    561.88     0  04:00      1.49    1.18    1.00
  WS02006234WS02006232 CONDUIT    561.47     0  04:00      1.46    1.14    1.00
  WS02006235WS02006234 CONDUIT    558.47     0  04:00      1.45    5.89    1.00
  WS02006238WS02006235 CONDUIT    437.07     0  04:10      1.45    0.98    1.00
  WS02006239WS02006238 CONDUIT    428.65     0  04:16      1.12    1.37    1.00
  WS02006240WS02006239 CONDUIT    429.80     0  04:16      1.26    1.35    1.00
  WS02006242WS02006240 CONDUIT    427.97     0  04:16      1.14    1.70    1.00
  WS02006243WS02006242 CONDUIT    428.04     0  04:10      1.34    0.91    1.00
  WS02006245WS02006243 CONDUIT    429.83     0  04:10      1.39    1.27    1.00
  WS02006247WS02006245 CONDUIT    429.84     0  04:10      1.37    3.41    1.00
  WS02006248WS02006247 CONDUIT    429.29     0  04:10      1.41    0.93    1.00
  WS02006249WS02006248 CONDUIT    430.77     0  04:10      1.38    2.36    1.00
  WS02006251WS02006249 CONDUIT   1342.11     0  02:10      3.49    3.87    1.00
  WS02006252WS02006251 CONDUIT    415.70     0  02:03     24.61    1.53    1.00
  WS02006253WS02006251 CONDUIT   1440.35     0  02:10      3.74    4.32    1.00
  WS02006256WS02006235 CONDUIT    288.93     0  00:00      4.23    3.06    1.00
  WS02006280WS02006229 CONDUIT   2274.54     0  02:14      4.12    0.49    1.00
  WS02006284WS02006280 CONDUIT   2273.05     0  02:14      2.96    0.95    1.00
  WS02006287WS02006284 CONDUIT   2273.18     0  02:14      2.89    1.05    1.00
  WSF200WS02003060     CONDUIT   1280.60     0  02:14      2.29    0.28    0.50
  YS02001580YS02001583 CONDUIT    107.30     0  02:07      0.63    0.42    1.00
  YS02001583YS02001586 CONDUIT    155.68     0  02:06      0.65    0.24    1.00
  YS02001586YS02001590 CONDUIT    318.10     0  02:16      1.25    0.56    1.00
  YS02001590YS02001593 CONDUIT    318.01     0  02:20      1.12    2.00    1.00
  YS02001593YS02001596 CONDUIT    317.98     0  02:17      1.73    0.50    1.00
  YS02001596YS02001600 CONDUIT    318.05     0  02:18      1.23    0.62    1.00
  YS02001600YS02001601 CONDUIT    317.93     0  02:20      1.12    0.55    1.00
  YS02001601YS02001602 CONDUIT    513.73     0  02:06      1.82    1.86    1.00
  YS02001602YS02001605 CONDUIT    513.04     0  02:06      1.81   10.86    1.00
  YS02001605YS02001607 CONDUIT    512.97     0  02:06      1.81    2.81    1.00
  YS02001607YS02001610 CONDUIT    514.44     0  02:06      0.65    0.49    1.00
  YS02001610YS02001613 CONDUIT    516.64     0  02:06      0.66    0.60    1.00
  YS02001613YS02001616 CONDUIT    510.05     0  02:06      0.66    0.44    1.00
  YS02001616YS02001619 CONDUIT    502.33     0  02:06      0.67    0.87    1.00
  YS02001619YS02001622 CONDUIT    920.56     0  02:09      1.18    1.36    1.00
  YS02001622YS02001625 CONDUIT    921.32     0  02:09      1.17    0.49    1.00
  YS02001625YS02001629 CONDUIT    921.86     0  02:09      1.17    0.44    1.00
  YS02001629YS02163301 CONDUIT    923.96     0  02:09      1.18    1.14    1.00
  YS02001633YS02163601 CONDUIT   1363.29     0  02:09      1.74    1.43    1.00
  YS02001641YS02001644 CONDUIT   1364.56     0  02:09      1.74    4.41    1.00
  YS02001644YS02001647 CONDUIT   1770.04     0  02:09      2.26    1.04    1.00
  YS02001647YS02001649 CONDUIT   1781.01     0  02:09      2.33    0.94    1.00
  YS02001649YS02001757 CONDUIT   1934.63     0  02:09      2.48    1.17    1.00
  YS02001652YS02001649 CONDUIT    738.97     0  02:13      0.94    0.37    1.00
  YS02001655YS02001652 CONDUIT    738.62     0  02:13      1.30    0.36    1.00
  YS02001658YS02001655 CONDUIT    738.17     0  02:13      1.89    0.31    1.00
  YS02001661YS02001658 CONDUIT    736.48     0  02:13      2.29    0.29    1.00
  YS02001664YS02001661 CONDUIT    770.52     0  02:12      2.28    0.24    0.77
  YS02001745YS02001748 CONDUIT    580.59     0  02:12      2.16    0.22    0.88
  YS02001748YS02001751 CONDUIT    441.94     0  02:12      1.68    0.22    1.00
  YS02001751YS02001754 CONDUIT    442.87     0  02:12      1.42    0.21    1.00
  YS02001754YS02001757 CONDUIT    441.82     0  02:12      0.56    0.18    1.00
  YS02001757CaochengTiaoxuchi CONDUIT   3235.04     0  02:12      4.12    1.40    1.00
  YS02001759YS02001757 CONDUIT   1257.67     0  02:14      1.60    0.89    1.00
  YS02001762YS02001759 CONDUIT    734.91     0  02:15      0.94    0.85    1.00
  YS02001765YS02001762 CONDUIT    734.82     0  02:15      0.94    0.69    1.00
  YS02001767YS02001765 CONDUIT    734.45     0  02:15      0.94    0.92    1.00
  YS02001770YS02001767 CONDUIT    734.09     0  02:15      0.93    2.91    1.00
  YS02001774YS02001770 CONDUIT    384.22     0  02:10      0.49    0.25    1.00
  YS02001779YS02001774 CONDUIT    400.18     0  02:10      0.51    0.20    1.00
  YS02001783YS02001784 CONDUIT   1157.92     0  02:12      2.30    1.60    1.00
  YS02001784YS02001785 CONDUIT   1158.44     0  02:12      2.30    2.70    1.00
  YS02001786YS02001788 CONDUIT   1158.55     0  02:12      2.47    2.23    0.89
  YS02001788YS02001790 CONDUIT   1168.77     0  02:12      2.70    0.86    0.84
  YS02001790YS02001791 CONDUIT   1292.72     0  02:13      3.44    1.41    0.70
  YS02001791YS02001793 CONDUIT   1233.76     0  02:20      6.75    0.53    0.45
  YS02001793JiankangQianchi CONDUIT   1268.43     0  02:15      2.52    0.10    0.65
  YS02001882YS02001884 CONDUIT     49.18     0  02:08      0.10    0.06    1.00
  YS02001884YS02001887 CONDUIT     78.07     0  02:08      0.10    0.10    1.00
  YS02001887YS02001890 CONDUIT    603.70     0  02:13      0.77    1.03    1.00
  YS02001890YS02001895 CONDUIT    516.38     0  02:15      0.66    0.24    1.00
  YS02001895YS02001898 CONDUIT    516.07     0  02:15      0.66    0.90    1.00
  YS02001898YS02001901 CONDUIT    516.34     0  02:15      0.66    0.33    1.00
  YS02001901YS02001904 CONDUIT    516.18     0  02:15      0.66    0.80    1.00
  YS02001904YS02001907 CONDUIT    516.40     0  02:15      0.66    0.18    1.00
  YS02001907YS02006553 CONDUIT    797.29     0  02:26      0.89    0.94    1.00
  YS02001910YS02001907 CONDUIT   1057.07     0  02:15      1.35    0.60    1.00
  YS02001915YS02001910 CONDUIT   1056.57     0  02:15      1.35    0.52    1.00
  YS02001918YS02001915 CONDUIT    446.74     0  02:11      0.57    0.25    1.00
  YS02001920YS02001918 CONDUIT    445.23     0  02:11      0.66    0.43    1.00
  YS02001923YS02001920 CONDUIT    441.36     0  02:11      0.70    0.20    1.00
  YS02001926YS02001923 CONDUIT    418.54     0  02:11      0.96    0.60    1.00
  YS02001929YS02001926 CONDUIT    415.25     0  02:11      1.13    0.20    1.00
  YS02006553YS02006556 CONDUIT    797.73     0  02:26      1.02    0.68    1.00
  YS02006556YS02006558 CONDUIT    799.44     0  02:26      1.02    0.63    1.00
  YS02006558YS02006561 CONDUIT   1157.67     0  02:13      4.09    2.56    1.00
  YS02006561YS02001783 CONDUIT   1157.84     0  02:13      2.30    0.60    1.00
  YS02163301YS02001633 CONDUIT    925.18     0  02:09      1.18    0.87    1.00
  YS02163601YS02164001 CONDUIT   1363.48     0  02:09      1.74    1.21    1.00
  YS02164001YS02001641 CONDUIT   1364.78     0  02:09      1.74    1.86    1.00
  YSB1154YSB6556       CONDUIT    321.79     0  02:14      0.84    0.58    1.00
  YSB1171HS02004479    CONDUIT    438.91     0  02:10      0.87    0.29    1.00
  YSB1174YSB1171       CONDUIT    284.07     0  02:13      0.74    0.44    1.00
  YSB6556YSB1171       CONDUIT    321.70     0  02:14      0.84    0.33    1.00
  CC-R1                PUMP       683.00     0  00:00              1.00
  CC-R2                PUMP       683.00     0  00:00              1.00
  CC-S1                PUMP       200.00     0  00:00              1.00
  CC-S2                PUMP       200.00     0  00:00              1.00
  JK-R1                PUMP      1000.00     0  00:00              1.00
  JK-R2                PUMP      1000.00     0  00:00              1.00
  JK-S                 PUMP       300.00     0  00:00              1.00
  XR-1                 PUMP        95.00     0  00:00              1.00
  XR-2                 PUMP        95.00     0  00:00              1.00
  XR-3                 PUMP        95.00     0  00:00              1.00
  XR-4                 PUMP        95.00     0  00:00              1.00
  
  
  ***************************
  Flow Classification Summary
  ***************************
  
  -------------------------------------------------------------------------------------
                      Adjusted    ---------- Fraction of Time in Flow Class ---------- 
                       /Actual         Up    Down  Sub   Sup   Up    Down  Norm  Inlet 
  Conduit               Length    Dry  Dry   Dry   Crit  Crit  Crit  Crit  Ltd   Ctrl  
  -------------------------------------------------------------------------------------
  1                       1.00   0.00  0.00  0.00  0.00  1.00  0.00  0.00  0.42  0.00
  HS02004478WS02006287    1.00   0.13  0.00  0.00  0.59  0.29  0.00  0.00  0.61  0.00
  HS02004479HS02004480    1.00   0.03  0.00  0.00  0.97  0.00  0.00  0.00  0.12  0.00
  HS02004480HS02004478    1.00   0.11  0.00  0.00  0.53  0.00  0.00  0.36  0.00  0.00
  HS02004770HS02004777    1.00   0.00  0.11  0.00  0.89  0.00  0.00  0.00  0.03  0.00
  HS02004777HS02004785    1.00   0.00  0.00  0.00  1.00  0.00  0.00  0.00  0.13  0.00
  HS02004785HS02004788    1.00   0.00  0.00  0.00  1.00  0.00  0.00  0.00  0.00  0.00
  HS02004788HS02004792    1.00   0.00  0.00  0.00  0.99  0.01  0.00  0.00  0.92  0.00
  HS02004792HS02004799    1.00   0.00  0.00  0.00  0.99  0.01  0.00  0.00  0.88  0.00
  HS02004799HS02004480    1.00   0.00  0.03  0.00  0.88  0.00  0.10  0.00  0.00  0.00
  HS02004802HS02004478    1.00   0.11  0.00  0.00  0.89  0.00  0.00  0.00  0.03  0.00
  HS02004807HS02004802    1.00   0.11  0.00  0.00  0.88  0.00  0.00  0.01  0.00  0.00
  HS02004817HS02004807    1.00   0.00  0.11  0.00  0.89  0.00  0.00  0.00  0.01  0.00
  HS02004817HS02004824    1.00   0.00  0.00  0.00  1.00  0.00  0.00  0.00  0.84  0.00
  HS02004824HS02004830    1.00   0.00  0.00  0.00  1.00  0.00  0.00  0.00  0.01  0.00
  HS02004830HS02004837    1.00   0.00  0.00  0.00  1.00  0.00  0.00  0.00  0.90  0.00
  HS02004837HS02004842    1.00   0.00  0.00  0.00  1.00  0.00  0.00  0.00  0.11  0.00
  HS02004842HS02004848    1.00   0.00  0.11  0.00  0.89  0.00  0.00  0.00  0.57  0.00
  HS02004848HS02004852    1.00   0.11  0.00  0.00  0.89  0.00  0.00  0.00  0.70  0.00
  HS02004852HS02004856    1.00   0.11  0.01  0.00  0.89  0.00  0.00  0.00  0.69  0.00
  HS02004856HS02004862    1.00   0.00  0.13  0.00  0.87  0.00  0.00  0.00  0.75  0.00
  HS02004862HS02004870    1.00   0.00  0.00  0.00  1.00  0.00  0.00  0.00  0.04  0.00
  HS02004870HS02004876    1.00   0.00  0.00  0.00  0.99  0.01  0.00  0.00  0.88  0.00
  HS02004876HS02004881    1.00   0.02  0.00  0.00  0.77  0.22  0.00  0.00  0.00  0.00
  HS02004881HS02006253    1.00   0.02  0.02  0.00  0.62  0.02  0.00  0.32  0.39  0.00
  HS02004901HS02004770    1.00   0.11  0.00  0.00  0.89  0.00  0.00  0.00  0.00  0.00
  WS02001211WS02001212    1.00   0.00  0.02  0.00  0.98  0.00  0.00  0.00  0.00  0.00
  WS02001212WS02001213    1.00   0.02  0.00  0.00  0.60  0.00  0.37  0.00  0.00  0.00
  WS02001213WS02003059    1.00   0.00  0.00  0.00  0.99  0.00  0.00  0.00  0.00  0.00
  WS02003059WS02003060    1.00   0.00  0.00  0.00  1.00  0.00  0.00  0.00  0.03  0.00
  WS02003060WS02003069    1.00   0.00  0.00  0.00  0.98  0.02  0.00  0.00  0.44  0.00
  WS02003066WSF200        1.00   0.07  0.00  0.00  0.00  0.93  0.00  0.00  0.64  0.00
  WS02003067WS02003066    1.00   0.07  0.00  0.00  0.93  0.00  0.00  0.00  0.00  0.00
  WS02003069WS02003072    1.00   0.00  0.00  0.00  1.00  0.00  0.00  0.00  0.48  0.00
  WS02003072WS02003073    1.00   0.00  0.00  0.00  0.00  0.00  0.00  1.00  0.00  0.00
  WS02004138WS02004139    1.00   0.00  0.00  0.00  0.98  0.01  0.00  0.01  0.98  0.00
  WS02004139WS02001211    1.00   0.00  0.00  0.00  1.00  0.00  0.00  0.00  0.00  0.00
  WS02004401WS02004402    1.00   0.02  0.00  0.00  0.98  0.00  0.00  0.00  0.00  0.00
  WS02004402WS02004403    1.00   0.02  0.00  0.00  0.98  0.00  0.00  0.00  0.00  0.00
  WS02004403WS02004404    1.00   0.00  0.02  0.00  0.98  0.00  0.00  0.00  0.00  0.00
  WS02004404WS02004405    1.00   0.00  0.00  0.00  1.00  0.00  0.00  0.00  0.01  0.00
  WS02004405WS02004406    1.00   0.00  0.00  0.00  1.00  0.00  0.00  0.00  0.00  0.00
  WS02004406WS02004407    1.00   0.00  0.04  0.00  0.96  0.00  0.00  0.00  0.00  0.00
  WS02004407WS02004409    1.00   0.04  0.00  0.00  0.93  0.03  0.00  0.00  0.84  0.00
  WS02004409WS02004410    1.00   0.04  0.00  0.00  0.96  0.00  0.00  0.00  0.00  0.00
  WS02004410WS02004411    1.00   0.04  0.00  0.00  0.95  0.00  0.00  0.00  0.00  0.00
  WS02004411WS02004412    1.00   0.05  0.00  0.00  0.95  0.00  0.00  0.00  0.00  0.00
  WS02004412WS02004413    1.00   0.05  0.00  0.00  0.94  0.01  0.00  0.00  0.00  0.00
  WS02004413WS02003067    1.00   0.06  0.02  0.00  0.00  0.00  0.93  0.00  0.00  0.00
  WS02006109WS02006110    1.00   0.00  0.01  0.00  0.99  0.00  0.01  0.00  0.00  0.00
  WS02006110WS02006113    1.00   0.01  0.01  0.00  0.99  0.00  0.00  0.00  0.00  0.00
  WS02006111WS02006112    1.00   0.02  0.00  0.00  0.98  0.00  0.00  0.00  0.78  0.00
  WS02006112WS02006115    1.00   0.02  0.00  0.00  0.98  0.00  0.00  0.00  0.00  0.00
  WS02006113WS02006111    1.00   0.01  0.00  0.00  0.23  0.76  0.00  0.00  0.13  0.00
  WS02006115WS02006116    1.00   0.02  0.00  0.00  0.98  0.00  0.00  0.01  0.00  0.00
  WS02006116WS02004401    1.00   0.02  0.00  0.00  0.98  0.00  0.00  0.00  0.00  0.00
  WS02006228WS02006109    1.00   0.00  0.00  0.00  1.00  0.00  0.00  0.00  0.00  0.00
  WS02006229WS02006228    1.00   0.00  0.00  0.00  0.99  0.00  0.00  0.01  0.00  0.00
  WS02006230WS02006229    1.00   0.00  0.00  0.00  0.99  0.00  0.00  0.01  0.02  0.00
  WS02006231WS02006230    1.00   0.00  0.00  0.00  0.65  0.00  0.35  0.00  0.00  0.00
  WS02006232WS02006231    1.00   0.00  0.00  0.00  0.99  0.00  0.00  0.00  0.00  0.00
  WS02006234WS02006232    1.00   0.00  0.00  0.00  1.00  0.00  0.00  0.00  0.02  0.00
  WS02006235WS02006234    1.00   0.00  0.00  0.00  0.94  0.00  0.06  0.00  0.00  0.00
  WS02006238WS02006235    1.00   0.00  0.00  0.00  1.00  0.00  0.00  0.00  0.00  0.00
  WS02006239WS02006238    1.00   0.00  0.00  0.00  1.00  0.00  0.00  0.00  0.06  0.00
  WS02006240WS02006239    1.00   0.00  0.00  0.00  0.81  0.00  0.00  0.19  0.02  0.00
  WS02006242WS02006240    1.00   0.00  0.00  0.00  0.99  0.00  0.01  0.00  0.00  0.00
  WS02006243WS02006242    1.00   0.00  0.00  0.00  1.00  0.00  0.00  0.00  0.46  0.00
  WS02006245WS02006243    1.00   0.00  0.00  0.00  0.91  0.00  0.00  0.09  0.00  0.00
  WS02006247WS02006245    1.00   0.00  0.00  0.00  0.99  0.00  0.00  0.01  0.00  0.00
  WS02006248WS02006247    1.00   0.00  0.00  0.00  1.00  0.00  0.00  0.00  0.45  0.00
  WS02006249WS02006248    1.00   0.00  0.00  0.00  0.73  0.00  0.27  0.00  0.00  0.00
  WS02006251WS02006249    1.00   0.00  0.00  0.00  1.00  0.00  0.00  0.00  0.42  0.00
  WS02006252WS02006251    1.00   0.00  0.29  0.00  0.34  0.00  0.37  0.00  0.00  0.00
  WS02006253WS02006251    1.00   0.00  0.00  0.00  1.00  0.00  0.00  0.00  0.02  0.00
  WS02006256WS02006235    1.00   0.00  0.00  0.00  0.99  0.01  0.00  0.00  0.00  0.00
  WS02006280WS02006229    1.00   0.11  0.00  0.00  0.17  0.05  0.00  0.67  0.01  0.00
  WS02006284WS02006280    1.00   0.11  0.00  0.00  0.11  0.01  0.00  0.76  0.00  0.00
  WS02006287WS02006284    1.00   0.10  0.03  0.00  0.49  0.38  0.00  0.00  0.66  0.00
  WSF200WS02003060        1.00   0.00  0.07  0.00  0.37  0.56  0.00  0.00  0.46  0.00
  YS02001580YS02001583    1.00   0.28  0.48  0.00  0.24  0.00  0.00  0.00  0.66  0.00
  YS02001583YS02001586    1.00   0.28  0.43  0.00  0.29  0.00  0.00  0.00  0.66  0.00
  YS02001586YS02001590    1.00   0.11  0.00  0.00  0.59  0.04  0.00  0.26  0.37  0.00
  YS02001590YS02001593    1.00   0.11  0.00  0.00  0.13  0.00  0.75  0.00  0.00  0.00
  YS02001593YS02001596    1.00   0.11  0.00  0.00  0.15  0.01  0.00  0.72  0.02  0.00
  YS02001596YS02001600    1.00   0.11  0.00  0.00  0.26  0.02  0.00  0.60  0.05  0.00
  YS02001600YS02001601    1.00   0.11  0.00  0.00  0.88  0.00  0.00  0.00  0.62  0.00
  YS02001601YS02001602    1.00   0.11  0.00  0.00  0.89  0.00  0.00  0.00  0.00  0.00
  YS02001602YS02001605    1.00   0.11  0.00  0.00  0.89  0.00  0.00  0.00  0.00  0.00
  YS02001605YS02001607    1.00   0.12  0.00  0.00  0.88  0.00  0.00  0.00  0.00  0.00
  YS02001607YS02001610    1.00   0.11  0.00  0.00  0.88  0.00  0.00  0.00  0.02  0.00
  YS02001610YS02001613    1.00   0.11  0.00  0.00  0.89  0.00  0.00  0.00  0.01  0.00
  YS02001613YS02001616    1.00   0.11  0.00  0.00  0.89  0.00  0.00  0.00  0.01  0.00
  YS02001616YS02001619    1.00   0.11  0.00  0.00  0.89  0.00  0.00  0.00  0.00  0.00
  YS02001619YS02001622    1.00   0.11  0.00  0.00  0.89  0.00  0.00  0.00  0.29  0.00
  YS02001622YS02001625    1.00   0.11  0.00  0.00  0.89  0.00  0.00  0.00  0.05  0.00
  YS02001625YS02001629    1.00   0.11  0.03  0.00  0.18  0.00  0.68  0.00  0.00  0.00
  YS02001629YS02163301    1.00   0.12  0.00  0.00  0.87  0.00  0.00  0.00  0.00  0.00
  YS02001633YS02163601    1.00   0.00  0.00  0.00  1.00  0.00  0.00  0.00  0.15  0.00
  YS02001641YS02001644    1.00   0.00  0.00  0.00  1.00  0.00  0.00  0.00  0.00  0.00
  YS02001644YS02001647    1.00   0.00  0.13  0.00  0.87  0.00  0.00  0.00  0.00  0.00
  YS02001647YS02001649    1.00   0.00  0.13  0.00  0.51  0.35  0.00  0.00  0.56  0.00
  YS02001649YS02001757    1.00   0.00  0.00  0.00  0.71  0.28  0.00  0.00  0.41  0.00
  YS02001652YS02001649    1.00   0.00  0.00  0.00  0.98  0.02  0.00  0.00  0.75  0.00
  YS02001655YS02001652    1.00   0.00  0.00  0.00  0.22  0.02  0.00  0.76  0.06  0.00
  YS02001658YS02001655    1.00   0.00  0.12  0.00  0.58  0.31  0.00  0.00  0.71  0.00
  YS02001661YS02001658    1.00   0.12  0.00  0.00  0.36  0.52  0.00  0.00  0.69  0.00
  YS02001664YS02001661    1.00   0.11  0.00  0.00  0.73  0.16  0.00  0.00  0.86  0.00
  YS02001745YS02001748    1.00   0.00  0.00  0.00  0.10  0.01  0.00  0.89  0.04  0.00
  YS02001748YS02001751    1.00   0.00  0.00  0.00  0.73  0.27  0.00  0.00  0.77  0.00
  YS02001751YS02001754    1.00   0.00  0.00  0.00  0.19  0.01  0.00  0.80  0.04  0.00
  YS02001754YS02001757    1.00   0.00  0.00  0.00  1.00  0.00  0.00  0.00  0.81  0.00
  YS02001757CaochengTiaoxuchi    1.00   0.00  0.00  0.00  1.00  0.00  0.00  0.00  0.70  0.00
  YS02001759YS02001757    1.00   0.00  0.00  0.00  1.00  0.00  0.00  0.00  0.55  0.00
  YS02001762YS02001759    1.00   0.00  0.00  0.00  1.00  0.00  0.00  0.00  0.05  0.00
  YS02001765YS02001762    1.00   0.00  0.00  0.00  1.00  0.00  0.00  0.00  0.67  0.00
  YS02001767YS02001765    1.00   0.00  0.00  0.00  1.00  0.00  0.00  0.00  0.01  0.00
  YS02001770YS02001767    1.00   0.00  0.00  0.00  1.00  0.00  0.00  0.00  0.00  0.00
  YS02001774YS02001770    1.00   0.00  0.11  0.00  0.79  0.00  0.10  0.00  0.04  0.00
  YS02001779YS02001774    1.00   0.00  0.00  0.00  1.00  0.00  0.00  0.00  0.78  0.00
  YS02001783YS02001784    1.00   0.00  0.14  0.00  0.86  0.00  0.00  0.00  0.56  0.00
  YS02001784YS02001785    1.00   0.00  0.00  0.00  1.00  0.00  0.00  0.00  0.18  0.00
  YS02001786YS02001788    1.00   0.00  0.00  0.00  0.68  0.32  0.00  0.00  0.00  0.00
  YS02001788YS02001790    1.00   0.00  0.00  0.00  0.17  0.83  0.00  0.00  0.82  0.00
  YS02001790YS02001791    1.00   0.00  0.00  0.00  0.01  0.99  0.00  0.00  0.16  0.00
  YS02001791YS02001793    1.00   0.00  0.00  0.00  0.00  1.00  0.00  0.00  0.01  0.00
  YS02001793JiankangQianchi    1.00   0.00  0.00  0.00  0.98  0.02  0.00  0.00  0.97  0.00
  YS02001882YS02001884    1.00   0.12  0.00  0.00  0.87  0.00  0.00  0.00  0.00  0.00
  YS02001884YS02001887    1.00   0.06  0.04  0.00  0.90  0.00  0.00  0.00  0.00  0.00
  YS02001887YS02001890    1.00   0.00  0.00  0.00  0.98  0.00  0.02  0.00  0.00  0.00
  YS02001890YS02001895    1.00   0.00  0.13  0.00  0.87  0.00  0.00  0.00  0.00  0.00
  YS02001895YS02001898    1.00   0.13  0.00  0.00  0.85  0.00  0.02  0.00  0.00  0.00
  YS02001898YS02001901    1.00   0.13  0.00  0.00  0.87  0.00  0.00  0.00  0.01  0.00
  YS02001901YS02001904    1.00   0.13  0.00  0.00  0.87  0.00  0.00  0.00  0.00  0.00
  YS02001904YS02001907    1.00   0.00  0.13  0.00  0.87  0.00  0.00  0.00  0.00  0.00
  YS02001907YS02006553    1.00   0.00  0.02  0.00  0.98  0.00  0.00  0.00  0.00  0.00
  YS02001910YS02001907    1.00   0.00  0.00  0.00  0.98  0.00  0.00  0.02  0.12  0.00
  YS02001915YS02001910    1.00   0.00  0.00  0.00  0.98  0.02  0.00  0.00  0.17  0.00
  YS02001918YS02001915    1.00   0.00  0.00  0.00  0.98  0.02  0.00  0.00  0.77  0.00
  YS02001920YS02001918    1.00   0.00  0.00  0.00  1.00  0.00  0.00  0.00  0.00  0.00
  YS02001923YS02001920    1.00   0.00  0.00  0.00  1.00  0.00  0.00  0.00  0.94  0.00
  YS02001926YS02001923    1.00   0.00  0.08  0.00  0.05  0.00  0.87  0.00  0.00  0.00
  YS02001929YS02001926    1.00   0.00  0.11  0.00  0.89  0.00  0.00  0.00  0.83  0.00
  YS02006553YS02006556    1.00   0.01  0.00  0.00  0.99  0.00  0.00  0.00  0.03  0.00
  YS02006556YS02006558    1.00   0.00  0.00  0.00  1.00  0.00  0.00  0.00  0.00  0.00
  YS02006558YS02006561    1.00   0.14  0.00  0.00  0.05  0.81  0.00  0.00  0.19  0.00
  YS02006561YS02001783    1.00   0.14  0.00  0.00  0.09  0.77  0.00  0.00  0.70  0.00
  YS02163301YS02001633    1.00   0.00  0.12  0.00  0.88  0.00  0.00  0.00  0.00  0.00
  YS02163601YS02164001    1.00   0.00  0.08  0.00  0.92  0.00  0.00  0.00  0.00  0.00
  YS02164001YS02001641    1.00   0.01  0.08  0.00  0.92  0.00  0.00  0.00  0.06  0.00
  YSB1154YSB6556          1.00   0.11  0.00  0.00  0.89  0.00  0.00  0.00  0.02  0.00
  YSB1171HS02004479       1.00   0.03  0.00  0.00  0.95  0.00  0.00  0.02  0.10  0.00
  YSB1174YSB1171          1.00   0.04  0.05  0.00  0.91  0.00  0.00  0.00  0.00  0.00
  YSB6556YSB1171          1.00   0.03  0.08  0.00  0.89  0.00  0.00  0.00  0.00  0.00
  
  
  *************************
  Conduit Surcharge Summary
  *************************
  
  ----------------------------------------------------------------------------
                                                           Hours        Hours 
                         --------- Hours Full --------   Above Full   Capacity
  Conduit                Both Ends  Upstream  Dnstream   Normal Flow   Limited
  ----------------------------------------------------------------------------
  HS02004478WS02006287        0.35      0.35      0.52      0.01         0.01
  HS02004479HS02004480        0.52      0.52      0.54      0.01         0.01
  HS02004480HS02004478        0.46      0.51      0.46      1.51         0.46
  HS02004770HS02004777        0.42      0.42      0.43      0.09         0.06
  HS02004777HS02004785        0.38      0.38      0.43      0.01         0.01
  HS02004785HS02004788        0.37      0.38      0.37      1.24         0.36
  HS02004788HS02004792        0.37      0.37      0.48      0.01         0.01
  HS02004792HS02004799        0.48      0.48      0.60      0.01         0.01
  HS02004799HS02004480        0.51      0.51      0.60      0.67         0.01
  HS02004802HS02004478        0.47      0.47      0.53      0.01         0.01
  HS02004807HS02004802        0.51      0.51      0.52      0.16         0.15
  HS02004817HS02004807        0.51      0.51      1.03      0.01         0.01
  HS02004817HS02004824        0.38      0.38      1.03      0.01         0.01
  HS02004824HS02004830        0.35      0.35      0.38      0.01         0.01
  HS02004830HS02004837        0.32      0.32      0.35      0.01         0.01
  HS02004837HS02004842        0.32      0.32      0.44      0.01         0.01
  HS02004842HS02004848        0.28      0.28      0.44      0.01         0.01
  HS02004848HS02004852        0.28      0.28      0.31      0.02         0.01
  HS02004852HS02004856        0.30      0.31      0.32      0.02         0.01
  HS02004856HS02004862        0.29      0.29      0.33      0.01         0.01
  HS02004862HS02004870        0.33      0.33      0.34      0.02         0.03
  HS02004870HS02004876        0.34      0.34      0.41      0.01         0.01
  HS02004876HS02004881        0.39      0.41      0.39      1.27         0.39
  HS02004881HS02006253        0.39      0.39      2.13      0.01         0.01
  HS02004901HS02004770        0.42      0.42      0.43      0.01         0.01
  WS02003072WS02003073        0.01      0.01      0.01      3.73         0.01
  WS02004401WS02004402        1.42      1.42      1.43      1.19         1.17
  WS02004402WS02004403        1.43      1.43      1.43      1.42         1.41
  WS02004403WS02004404        1.43      1.43      1.58      0.01         0.01
  WS02004404WS02004405        1.54      1.58      1.54      4.32         1.54
  WS02004405WS02004406        1.51      1.54      1.51      2.08         1.51
  WS02004406WS02004407        0.01      0.01      1.51      0.01         0.01
  WS02004407WS02004409        0.01      0.01      0.83      0.01         0.01
  WS02004409WS02004410        0.79      0.83      0.79      1.26         0.79
  WS02004410WS02004411        0.71      0.79      0.71      1.40         0.71
  WS02004411WS02004412        0.62      0.71      0.62      1.42         0.62
  WS02004412WS02004413        0.62      0.62      1.16      0.01         0.01
  WS02004413WS02003067        0.01      0.01      1.16      0.01         0.01
  WS02006109WS02006110        1.93      1.93      3.35      1.96         0.01
  WS02006110WS02006113        1.06      1.06      3.28      0.27         0.01
  WS02006111WS02006112        1.04      1.04      3.69      0.01         0.01
  WS02006112WS02006115        1.28      1.28      2.16      0.01         0.01
  WS02006113WS02006111        1.05      1.06      1.05      1.17         1.05
  WS02006115WS02006116        1.33      1.33      1.34      1.26         1.26
  WS02006116WS02004401        1.42      1.42      1.42      1.41         1.40
  WS02006228WS02006109        3.22      3.35      3.22      3.86         3.22
  WS02006229WS02006228        3.20      3.25      3.20      3.66         3.20
  WS02006230WS02006229        3.47      3.59      3.47      4.43         2.54
  WS02006231WS02006230        1.69      1.69      1.99      4.11         0.86
  WS02006232WS02006231        1.90      1.90      3.19      0.10         0.11
  WS02006234WS02006232        2.92      2.92      3.19      0.08         0.11
  WS02006235WS02006234        2.81      2.82      2.96      3.90         0.84
  WS02006238WS02006235        3.01      3.01      3.18      0.01         0.25
  WS02006239WS02006238        3.05      3.14      3.05      2.70         1.63
  WS02006240WS02006239        2.96      3.02      2.97      2.65         1.55
  WS02006242WS02006240        2.99      2.99      3.26      2.99         0.72
  WS02006243WS02006242        3.04      3.04      3.20      0.01         0.04
  WS02006245WS02006243        3.01      3.03      3.01      1.93         1.55
  WS02006247WS02006245        3.01      3.08      3.01      3.61         2.01
  WS02006248WS02006247        3.00      3.00      3.05      0.01         0.06
  WS02006249WS02006248        2.98      2.98      3.02      2.70         0.01
  WS02006251WS02006249        3.01      3.03      3.02      3.24         2.83
  WS02006252WS02006251        3.39      3.40      3.45      2.93         0.01
  WS02006253WS02006251        3.02      3.02      3.08      0.64         0.05
  WS02006256WS02006235        4.11      4.16      7.55      0.47         0.02
  WS02006280WS02006229        0.62      0.62      0.75      0.01         0.01
  WS02006284WS02006280        0.54      0.54      0.61      0.01         0.01
  WS02006287WS02006284        0.46      0.46      0.55      0.19         0.19
  YS02001580YS02001583        0.44      0.44      0.49      0.01         0.01
  YS02001583YS02001586        0.45      0.45      0.57      0.01         0.01
  YS02001586YS02001590        0.58      0.58      0.64      0.01         0.01
  YS02001590YS02001593        0.65      0.65      0.66      0.67         0.01
  YS02001593YS02001596        0.65      0.65      0.74      0.01         0.01
  YS02001596YS02001600        0.79      0.79      0.88      0.01         0.01
  YS02001600YS02001601        0.95      0.95      1.23      0.01         0.01
  YS02001601YS02001602        1.12      1.12      1.27      0.89         0.01
  YS02001602YS02001605        1.07      1.07      1.12      2.11         0.01
  YS02001605YS02001607        1.02      1.07      1.02      1.20         1.02
  YS02001607YS02001610        0.61      0.61      0.64      0.01         0.01
  YS02001610YS02001613        0.61      0.61      0.64      0.01         0.01
  YS02001613YS02001616        0.57      0.57      0.61      0.01         0.01
  YS02001616YS02001619        0.56      0.56      0.57      0.01         0.01
  YS02001619YS02001622        0.55      0.56      0.55      0.65         0.53
  YS02001622YS02001625        0.55      0.55      0.72      0.01         0.01
  YS02001625YS02001629        0.52      0.52      0.72      0.01         0.01
  YS02001629YS02163301        0.72      0.72      0.73      0.14         0.14
  YS02001633YS02163601        0.74      0.74      0.77      0.32         0.31
  YS02001641YS02001644        0.66      0.68      0.66      1.31         0.64
  YS02001644YS02001647        0.46      0.46      0.66      0.02         0.01
  YS02001647YS02001649        0.46      0.46      0.56      0.01         0.01
  YS02001649YS02001757        0.56      0.56      0.62      0.07         0.04
  YS02001652YS02001649        0.42      0.42      0.56      0.01         0.01
  YS02001655YS02001652        0.27      0.27      0.39      0.01         0.01
  YS02001658YS02001655        0.12      0.12      0.27      0.01         0.01
  YS02001661YS02001658        0.01      0.01      0.12      0.01         0.01
  YS02001664YS02001661        0.01      0.01      0.02      0.01         0.01
  YS02001745YS02001748        0.01      0.01      0.06      0.01         0.01
  YS02001748YS02001751        0.10      0.10      0.18      0.01         0.01
  YS02001751YS02001754        0.18      0.18      0.31      0.01         0.01
  YS02001754YS02001757        0.35      0.35      0.62      0.01         0.01
  YS02001757CaochengTiaoxuchi        0.62      0.62      1.79      0.28         0.25
  YS02001759YS02001757        0.53      0.53      0.62      0.01         0.01
  YS02001762YS02001759        0.50      0.50      0.53      0.01         0.02
  YS02001765YS02001762        0.46      0.46      0.50      0.01         0.01
  YS02001767YS02001765        0.43      0.43      0.46      0.01         0.02
  YS02001770YS02001767        0.43      0.43      0.43      0.41         0.30
  YS02001774YS02001770        0.41      0.41      0.48      0.01         0.01
  YS02001779YS02001774        0.32      0.32      0.48      0.01         0.01
  YS02001783YS02001784        0.40      0.42      0.40      0.56         0.40
  YS02001784YS02001785        0.30      0.40      0.30      0.77         0.30
  YS02001786YS02001788        0.01      0.30      0.01      0.66         0.01
  YS02001790YS02001791        0.01      0.01      0.01      0.39         0.01
  YS02001793JiankangQianchi        0.01      0.01      6.67      0.01         0.01
  YS02001882YS02001884        0.37      0.37      0.38      0.01         0.01
  YS02001884YS02001887        0.40      0.40      0.41      0.01         0.01
  YS02001887YS02001890        0.42      0.42      0.43      0.03         0.01
  YS02001890YS02001895        0.36      0.36      0.45      0.01         0.01
  YS02001895YS02001898        0.35      0.35      0.36      0.01         0.01
  YS02001898YS02001901        0.36      0.36      0.40      0.01         0.01
  YS02001901YS02001904        0.39      0.39      0.40      0.01         0.01
  YS02001904YS02001907        0.39      0.39      0.64      0.01         0.01
  YS02001907YS02006553        0.78      0.78      0.84      0.01         0.01
  YS02001910YS02001907        0.45      0.45      0.63      0.01         0.01
  YS02001915YS02001910        0.37      0.37      0.45      0.01         0.01
  YS02001918YS02001915        0.29      0.29      0.37      0.01         0.01
  YS02001920YS02001918        0.29      0.29      0.30      0.01         0.01
  YS02001923YS02001920        0.25      0.25      0.30      0.01         0.01
  YS02001926YS02001923        0.01      0.01      0.02      0.01         0.01
  YS02001929YS02001926        0.01      0.01      0.02      0.01         0.01
  YS02006553YS02006556        0.54      0.54      0.65      0.01         0.01
  YS02006556YS02006558        0.58      0.58      0.65      0.01         0.01
  YS02006558YS02006561        0.32      0.52      0.32      0.73         0.32
  YS02006561YS02001783        0.26      0.26      0.42      0.01         0.01
  YS02163301YS02001633        0.73      0.73      0.76      0.01         0.01
  YS02163601YS02164001        0.69      0.69      0.77      0.07         0.01
  YS02164001YS02001641        0.68      0.69      0.68      0.63         0.55
  YSB1154YSB6556              0.57      0.57      0.70      0.01         0.01
  YSB1171HS02004479           0.48      0.48      0.70      0.01         0.01
  YSB1174YSB1171              0.63      0.63      0.93      0.01         0.01
  YSB6556YSB1171              0.57      0.57      1.10      0.01         0.01
  
  
  ***************
  Pumping Summary
  ***************
  
  ---------------------------------------------------------------------------------------------------------
                                                  Min       Avg       Max     Total     Power    % Time Off
                        Percent   Number of      Flow      Flow      Flow    Volume     Usage    Pump Curve
  Pump                 Utilized   Start-Ups       LPS       LPS       LPS  10^6 ltr     Kw-hr    Low   High
  ---------------------------------------------------------------------------------------------------------
  CC-R1                   13.97           4      0.00    683.00    683.00     2.748     51.51    0.0    7.7
  CC-R2                   10.00           8      0.00    683.00    683.00     1.968     37.03    0.0   12.1
  CC-S1                   46.42          30      0.00    200.00    200.00     2.674     18.00    0.0    0.0
  CC-S2                   40.56          16      0.00    200.00    200.00     2.336     15.72    0.0    0.0
  JK-R1                    6.24          23      0.00   1000.00   1000.00     1.797     17.53    0.0    0.0
  JK-R2                    3.17          16      0.00   1000.00   1000.00     0.913      7.33    0.0    0.0
  JK-S                     9.96          36      0.00    300.00    300.00     0.860     14.79    0.0    0.0
  XR-1                    97.91           2      0.00     95.00     95.00     2.679      9.64    0.0    0.0
  XR-2                    93.95           2      0.00     95.00     95.00     2.571      8.80    0.0    0.0
  XR-3                     0.00           1      0.00     95.00     95.00     0.000      0.00    0.0    0.0
  XR-4                     0.00           1      0.00     95.00     95.00     0.000      0.00    0.0    0.0
  

  Analysis begun on:  Mon Feb 27 13:40:23 2023
  Analysis ended on:  Mon Feb 27 13:40:26 2023
  Total elapsed time: 00:00:03