
  OWA STORM WATER MANAGEMENT MODEL - VERSION v5.1.14 (OWA 2023-01-25)
  --------------------------------------------------------------

  WARNING 04: minimum elevation drop used for Conduit WS02004404WS02004405
  WARNING 03: negative offset ignored for Link YS02001904YS02001907
  
  *********************************************************
  NOTE: The summary statistics displayed in this report are
  based on results found at every computational time step,  
  not just on results from each reporting time step.
  *********************************************************
  
  ****************
  Analysis Options
  ****************
  Flow Units ............... LPS
  Process Models:
    Rainfall/Runoff ........ YES
    RDII ................... NO
    Snowmelt ............... NO
    Groundwater ............ NO
    Flow Routing ........... YES
    Ponding Allowed ........ NO
    Water Quality .......... NO
  Infiltration Method ...... HORTON
  Flow Routing Method ...... DYNWAVE
  Surcharge Method ......... EXTRAN
  Starting Date ............ 08/28/2015 08:00:00
  Ending Date .............. 08/28/2015 16:00:00
  Antecedent Dry Days ...... 8.0
  Report Time Step ......... 00:01:00
  Wet Time Step ............ 00:01:00
  Dry Time Step ............ 00:01:00
  Routing Time Step ........ 30.00 sec
  Variable Time Step ....... YES
  Maximum Trials ........... 8
  Number of Threads ........ 1
  Head Tolerance ........... 0.001500 m
  
  
  **************************        Volume         Depth
  Runoff Quantity Continuity     hectare-m            mm
  **************************     ---------       -------
  Total Precipitation ......         3.693        60.969
  Evaporation Loss .........         0.000         0.000
  Infiltration Loss ........         0.237         3.907
  Surface Runoff ...........         3.397        56.072
  Final Storage ............         0.061         1.006
  Continuity Error (%) .....        -0.027
  
  
  **************************        Volume        Volume
  Flow Routing Continuity        hectare-m      10^6 ltr
  **************************     ---------     ---------
  Dry Weather Inflow .......         0.630         6.296
  Wet Weather Inflow .......         3.397        33.968
  Groundwater Inflow .......         0.000         0.000
  RDII Inflow ..............         0.000         0.000
  External Inflow ..........         0.105         1.045
  External Outflow .........         2.472        24.718
  Flooding Loss ............         1.651        16.510
  Evaporation Loss .........         0.000         0.000
  Exfiltration Loss ........         0.000         0.000
  Initial Stored Volume ....         0.303         3.031
  Final Stored Volume ......         0.321         3.214
  Continuity Error (%) .....        -0.228
  
  
  *************************
  Highest Continuity Errors
  *************************
  Node YS02001884 (5.25%)
  Node YS02001583 (-5.07%)
  Node WS02006256 (-2.74%)
  Node HS02004842 (1.91%)
  
  
  ***************************
  Time-Step Critical Elements
  ***************************
  Link WS02006280WS02006229 (42.00%)
  Link WS02006252WS02006251 (18.93%)
  Link WS02006238WS02006235 (11.54%)
  Link YS02001791YS02001793 (7.13%)
  Link WS02004404WS02004405 (5.54%)
  
  
  ********************************
  Highest Flow Instability Indexes
  ********************************
  Link WS02006256WS02006235 (23)
  Link WS02006113WS02006111 (23)
  Link WS02006238WS02006235 (22)
  Link WS02006229WS02006228 (21)
  Link WS02004404WS02004405 (19)
  
  
  *************************
  Routing Time Step Summary
  *************************
  Minimum Time Step           :     0.01 sec
  Average Time Step           :     2.34 sec
  Maximum Time Step           :     6.46 sec
  Percent in Steady State     :    -0.00
  Average Iterations per Step :     3.62
  Percent Not Converging      :    15.25
  
  
  ***************************
  Subcatchment Runoff Summary
  ***************************
  
  ------------------------------------------------------------------------------------------------------------------------------
                            Total      Total      Total      Total     Imperv       Perv      Total       Total     Peak  Runoff
                           Precip      Runon       Evap      Infil     Runoff     Runoff     Runoff      Runoff   Runoff   Coeff
  Subcatchment                 mm         mm         mm         mm         mm         mm         mm    10^6 ltr      LPS
  ------------------------------------------------------------------------------------------------------------------------------
  sub0                      60.97       0.00       0.00       0.97      55.46       3.30      58.75        0.05    41.67   0.964
  sub1                      60.97       0.00       0.00       1.66      53.02       5.05      58.07        0.39   278.65   0.952
  sub10                     60.97       0.00       0.00       1.17      54.81       3.71      58.52        0.65   474.23   0.960
  sub11                     60.97       0.00       0.00       1.15      54.83       3.73      58.56        0.68   530.57   0.961
  sub12                     60.97       0.00       0.00       1.87      51.87       6.06      57.93        0.51   429.10   0.950
  sub14                     60.97       0.00       0.00       1.31      54.23       4.17      58.40        0.56   421.68   0.958
  sub15                     60.97       0.00       0.00       5.20      41.71      13.10      54.81        0.94   652.44   0.899
  sub16                     60.97       0.00       0.00       5.36      39.95      14.77      54.71        0.57   441.58   0.897
  sub17                     60.97       0.00       0.00       5.22      40.54      14.29      54.83        0.47   358.02   0.899
  sub2                      60.97       0.00       0.00       7.46      37.51      15.10      52.61        0.49   286.36   0.863
  sub22                     60.97       0.00       0.00       7.90      33.97      18.32      52.30        3.30  2176.93   0.858
  sub23                     60.97       0.00       0.00       6.43      37.55      16.14      53.69        2.56  1800.62   0.881
  sub3                      60.97       0.00       0.00       8.11      37.47      14.45      51.92        1.17   612.93   0.852
  sub4                      60.97       0.00       0.00       1.87      52.85       4.84      57.69        1.20   675.23   0.946
  sub5                      60.97       0.00       0.00       1.02      55.40       3.25      58.65        0.66   479.53   0.962
  sub60                     60.97       0.00       0.00       1.76      52.45       5.55      58.01        0.76   602.44   0.951
  sub61                     60.97       0.00       0.00       2.56      49.48       7.81      57.28        1.05   837.10   0.940
  sub62                     60.97       0.00       0.00       1.18      54.81       3.70      58.51        1.60  1162.35   0.960
  sub63                     60.97       0.00       0.00       4.75      42.32      12.93      55.25        1.25   935.40   0.906
  sub64                     60.97       0.00       0.00       2.40      50.62       6.75      57.37        1.38   951.03   0.941
  sub65                     60.97       0.00       0.00       2.08      51.79       5.85      57.64        1.59  1061.60   0.945
  sub66                     60.97       0.00       0.00       5.94      42.21      11.75      53.96        2.52  1376.76   0.885
  sub67                     60.97       0.00       0.00       1.13      54.85       3.75      58.60        1.09   911.22   0.961
  sub68                     60.97       0.00       0.00       2.12      51.25       6.42      57.67        1.59  1197.30   0.946
  sub69                     60.97       0.00       0.00       1.89      51.72       7.26      58.97        2.18  1410.82   0.967
  sub7                      60.97       0.00       0.00       1.29      54.24       4.19      58.44        0.20   157.49   0.959
  sub70                     60.97       0.00       0.00       6.40      40.08      14.33      54.41        1.57   770.78   0.892
  sub71                     60.97       0.00       0.00       1.21      54.77       3.67      58.44        1.53  1027.26   0.958
  sub72                     60.97       0.00       0.00       1.08      55.30       3.19      58.49        0.80   494.13   0.959
  sub8                      60.97       0.00       0.00       1.31      54.23       4.18      58.41        0.37   287.47   0.958
  sub9                      60.97       0.00       0.00       1.31      54.23       4.18      58.41        0.28   214.56   0.958
  
  
  ******************
  Node Depth Summary
  ******************
  
  ---------------------------------------------------------------------------------
                                 Average  Maximum  Maximum  Time of Max    Reported
                                   Depth    Depth      HGL   Occurrence   Max Depth
  Node                 Type       Meters   Meters   Meters  days hr:min      Meters
  ---------------------------------------------------------------------------------
  HS02004478           JUNCTION     0.23     1.59    10.81     0  02:11        1.58
  HS02004479           JUNCTION     0.30     1.69    10.89     0  02:07        1.66
  HS02004480           JUNCTION     0.27     1.66    10.90     0  02:07        1.63
  HS02004770           JUNCTION     0.27     1.42    11.25     0  02:04        1.42
  HS02004777           JUNCTION     0.30     1.48    11.28     0  02:05        1.45
  HS02004785           JUNCTION     0.19     1.49    11.39     0  02:05        1.36
  HS02004788           JUNCTION     0.16     1.42    11.32     0  02:05        1.37
  HS02004792           JUNCTION     0.21     1.60    11.12     0  02:05        1.60
  HS02004799           JUNCTION     0.33     1.76    10.97     0  02:07        1.76
  HS02004802           JUNCTION     0.33     1.80    10.93     0  02:11        1.79
  HS02004807           JUNCTION     0.30     1.92    11.09     0  02:07        1.92
  HS02004817           JUNCTION     0.61     2.44    11.29     0  02:07        2.41
  HS02004824           JUNCTION     0.17     2.01    11.41     0  02:07        2.01
  HS02004830           JUNCTION     0.18     2.03    11.50     0  02:07        1.98
  HS02004837           JUNCTION     0.15     2.04    11.62     0  02:07        1.91
  HS02004842           JUNCTION     0.44     2.22    11.49     0  02:07        2.22
  HS02004848           JUNCTION     0.13     2.07    11.67     0  02:07        1.92
  HS02004852           JUNCTION     0.13     2.12    11.63     0  02:07        1.97
  HS02004856           JUNCTION     0.20     2.07    11.50     0  02:07        2.03
  HS02004862           JUNCTION     0.15     2.00    11.38     0  02:07        2.00
  HS02004870           JUNCTION     0.14     2.10    11.39     0  02:07        2.00
  HS02004876           JUNCTION     0.19     2.10    11.13     0  02:13        2.10
  HS02004881           JUNCTION     0.13     1.85    10.88     0  02:13        1.85
  HS02004901           JUNCTION     0.28     1.42    11.24     0  02:04        1.42
  WS02001211           JUNCTION     0.64     0.82     5.66     0  02:16        0.82
  WS02001212           JUNCTION     0.38     0.58     5.64     0  02:17        0.58
  WS02001213           JUNCTION     0.60     0.88     5.64     0  02:17        0.88
  WS02003059           JUNCTION     0.67     0.94     5.63     0  02:17        0.94
  WS02003060           JUNCTION     0.39     0.69     5.62     0  02:15        0.69
  WS02003066           JUNCTION     0.24     0.46     6.01     0  02:13        0.46
  WS02003067           JUNCTION     0.56     0.89     6.21     0  02:12        0.89
  WS02003069           JUNCTION     0.44     0.78     5.37     0  02:15        0.78
  WS02003072           JUNCTION     0.50     0.82     5.19     0  02:15        0.82
  WS02003073           JUNCTION     0.30     0.52     4.58     0  02:16        0.52
  WS02004138           JUNCTION     0.13     0.14     7.39     0  00:29        0.14
  WS02004139           JUNCTION     0.57     0.75     5.66     0  02:16        0.75
  WS02004401           JUNCTION     0.79     1.93     7.93     0  02:13        1.93
  WS02004402           JUNCTION     0.80     1.88     7.84     0  02:13        1.88
  WS02004403           JUNCTION     0.81     1.79     7.72     0  02:13        1.78
  WS02004404           JUNCTION     0.87     1.80     7.65     0  02:13        1.79
  WS02004405           JUNCTION     0.86     1.75     7.60     0  02:13        1.75
  WS02004406           JUNCTION     0.85     1.63     7.46     0  02:13        1.62
  WS02004407           JUNCTION     0.27     0.98     7.29     0  02:13        0.97
  WS02004409           JUNCTION     0.55     1.42     7.19     0  02:13        1.41
  WS02004410           JUNCTION     0.56     1.32     7.04     0  02:13        1.30
  WS02004411           JUNCTION     0.56     1.22     6.90     0  02:13        1.22
  WS02004412           JUNCTION     0.57     1.12     6.76     0  02:13        1.11
  WS02004413           JUNCTION     0.70     1.15     6.62     0  02:13        1.15
  WS02006109           JUNCTION     0.99     2.64     9.26     0  02:04        2.64
  WS02006110           JUNCTION     0.93     2.61     9.19     0  02:04        2.61
  WS02006111           JUNCTION     0.42     2.04     8.74     0  02:04        2.04
  WS02006112           JUNCTION     1.00     2.62     8.50     0  02:04        2.62
  WS02006113           JUNCTION     0.51     1.97     8.86     0  02:04        1.97
  WS02006115           JUNCTION     0.71     2.04     8.18     0  02:13        2.04
  WS02006116           JUNCTION     0.78     2.04     8.08     0  02:04        2.04
  WS02006228           JUNCTION     1.05     3.03     9.68     0  02:04        3.03
  WS02006229           JUNCTION     1.06     3.22     9.92     0  02:14        3.22
  WS02006230           JUNCTION     0.99     2.65     9.39     0  02:02        2.65
  WS02006231           JUNCTION     0.72     2.20     9.32     0  02:24        2.20
  WS02006232           JUNCTION     0.81     2.18     9.22     0  02:02        2.18
  WS02006234           JUNCTION     0.70     1.96     9.12     0  02:00        1.96
  WS02006235           JUNCTION     0.71     2.00     9.16     0  02:30        2.00
  WS02006238           JUNCTION     0.74     2.15     9.29     0  03:02        2.15
  WS02006239           JUNCTION     0.68     2.03     9.24     0  02:04        2.03
  WS02006240           JUNCTION     0.63     1.93     9.22     0  03:02        1.93
  WS02006242           JUNCTION     0.67     1.55     8.82     0  01:59        1.55
  WS02006243           JUNCTION     0.57     1.48     8.90     0  03:02        1.48
  WS02006245           JUNCTION     0.55     1.48     8.97     0  03:50        1.39
  WS02006247           JUNCTION     0.55     1.31     8.81     0  03:02        1.31
  WS02006248           JUNCTION     0.50     1.10     8.69     0  01:54        1.10
  WS02006249           JUNCTION     0.52     1.09     8.69     0  01:54        1.09
  WS02006251           JUNCTION     0.62     2.19     9.86     0  02:07        2.15
  WS02006252           JUNCTION     0.42     1.50     9.74     0  00:00        1.50
  WS02006253           JUNCTION     0.70     3.13    10.77     0  02:13        3.11
  WS02006256           JUNCTION     1.03     2.35     9.28     0  00:00        2.35
  WS02006280           JUNCTION     0.29     1.74    10.01     0  02:07        1.74
  WS02006284           JUNCTION     0.56     1.95    10.35     0  02:11        1.94
  WS02006287           JUNCTION     0.29     1.74    10.69     0  02:11        1.73
  WSF200               JUNCTION     0.23     0.53     5.76     0  02:14        0.53
  YS02001580           JUNCTION     0.08     1.05     9.59     0  02:04        0.78
  YS02001583           JUNCTION     0.11     1.02     9.52     0  02:04        0.82
  YS02001586           JUNCTION     0.19     1.13     9.30     0  02:04        1.13
  YS02001590           JUNCTION     0.29     1.37     9.23     0  02:29        1.37
  YS02001593           JUNCTION     0.22     1.29     9.16     0  02:04        1.28
  YS02001596           JUNCTION     0.29     1.66     9.07     0  02:21        1.65
  YS02001600           JUNCTION     0.36     1.86     8.99     0  02:04        1.86
  YS02001601           JUNCTION     0.56     2.06     8.90     0  02:04        2.06
  YS02001602           JUNCTION     0.47     1.87     8.77     0  02:04        1.87
  YS02001605           JUNCTION     0.44     1.78     8.68     0  02:04        1.78
  YS02001607           JUNCTION     0.43     1.65     8.50     0  02:24        1.65
  YS02001610           JUNCTION     0.47     1.68     8.48     0  02:07        1.68
  YS02001613           JUNCTION     0.43     1.66     8.51     0  02:12        1.66
  YS02001616           JUNCTION     0.36     1.61     8.52     0  02:10        1.61
  YS02001619           JUNCTION     0.34     1.61     8.54     0  02:10        1.61
  YS02001622           JUNCTION     0.33     1.58     8.49     0  02:10        1.58
  YS02001625           JUNCTION     0.59     1.78     8.38     0  02:07        1.78
  YS02001629           JUNCTION     0.45     1.85     8.40     0  02:09        1.85
  YS02001633           JUNCTION     0.53     2.02     8.47     0  02:09        2.00
  YS02001641           JUNCTION     0.51     1.95     8.39     0  02:12        1.94
  YS02001644           JUNCTION     0.50     1.92     8.35     0  02:10        1.92
  YS02001647           JUNCTION     0.28     1.77     8.38     0  02:11        1.73
  YS02001649           JUNCTION     0.32     1.99     8.38     0  02:11        1.94
  YS02001652           JUNCTION     0.21     1.88     8.48     0  02:11        1.77
  YS02001655           JUNCTION     0.16     1.78     8.63     0  02:10        1.56
  YS02001658           JUNCTION     0.11     1.71     8.85     0  02:10        1.33
  YS02001661           JUNCTION     0.15     1.37     8.78     0  02:11        1.11
  YS02001664           JUNCTION     0.06     0.60     8.53     0  02:11        0.60
  YS02001745           JUNCTION     0.06     0.80     8.32     0  02:10        0.80
  YS02001748           JUNCTION     0.10     1.69     8.77     0  02:10        1.21
  YS02001751           JUNCTION     0.13     1.68     8.56     0  02:10        1.39
  YS02001754           JUNCTION     0.18     1.74     8.34     0  02:10        1.65
  YS02001757           JUNCTION     0.33     1.99     8.25     0  02:10        1.96
  YS02001759           JUNCTION     0.27     1.99     8.36     0  02:12        1.98
  YS02001762           JUNCTION     0.26     1.98     8.38     0  02:12        1.96
  YS02001765           JUNCTION     0.25     1.95     8.40     0  02:10        1.93
  YS02001767           JUNCTION     0.25     1.93     8.42     0  02:10        1.92
  YS02001770           JUNCTION     0.26     1.95     8.45     0  02:10        1.95
  YS02001774           JUNCTION     0.33     2.00     8.42     0  02:10        2.00
  YS02001779           JUNCTION     0.16     1.68     8.37     0  02:08        1.68
  YS02001783           JUNCTION     0.24     1.30     7.44     0  02:07        1.24
  YS02001784           JUNCTION     0.25     1.16     7.23     0  02:07        1.12
  YS02001786           JUNCTION     0.21     0.90     6.93     0  02:07        0.88
  YS02001788           JUNCTION     0.15     0.63     6.60     0  02:11        0.62
  YS02001790           JUNCTION     0.18     0.73     6.37     0  02:11        0.71
  YS02001791           JUNCTION     0.12     0.44     5.91     0  02:11        0.43
  YS02001793           JUNCTION     0.06     0.30     5.13     0  02:21        0.26
  YS02001882           JUNCTION     0.30     1.67     8.39     0  02:07        1.66
  YS02001884           JUNCTION     0.39     1.77     8.39     0  02:12        1.76
  YS02001887           JUNCTION     0.47     1.85     8.38     0  02:12        1.85
  YS02001890           JUNCTION     0.50     1.81     8.32     0  02:07        1.81
  YS02001895           JUNCTION     0.27     1.57     8.31     0  02:08        1.57
  YS02001898           JUNCTION     0.28     1.57     8.30     0  02:08        1.57
  YS02001901           JUNCTION     0.39     1.68     8.29     0  02:08        1.68
  YS02001904           JUNCTION     0.37     1.64     8.27     0  02:08        1.64
  YS02001907           JUNCTION     0.69     1.96     8.25     0  02:07        1.96
  YS02001910           JUNCTION     0.49     1.96     8.46     0  02:08        1.92
  YS02001915           JUNCTION     0.30     1.90     8.62     0  02:08        1.85
  YS02001918           JUNCTION     0.16     1.81     8.88     0  02:08        1.52
  YS02001920           JUNCTION     0.24     2.14     9.15     0  02:08        1.60
  YS02001923           JUNCTION     0.12     2.03     9.29     0  02:08        1.36
  YS02001926           JUNCTION     0.16     1.90     9.35     0  02:08        1.20
  YS02001929           JUNCTION     0.09     1.78     9.47     0  02:08        0.98
  YS02006553           JUNCTION     0.69     1.99     8.27     0  02:10        1.99
  YS02006556           JUNCTION     0.66     1.97     8.29     0  02:12        1.97
  YS02006558           JUNCTION     0.70     2.03     8.29     0  02:12        2.03
  YS02006561           JUNCTION     0.15     0.99     7.65     0  02:07        0.90
  YS02163301           JUNCTION     0.47     1.92     8.44     0  02:09        1.91
  YS02163601           JUNCTION     0.56     2.03     8.42     0  02:12        2.02
  YS02164001           JUNCTION     0.50     1.94     8.40     0  02:12        1.93
  YSB1154              JUNCTION     0.44     1.97    11.03     0  02:12        1.97
  YSB1171              JUNCTION     0.58     1.95    10.85     0  02:07        1.95
  YSB1174              JUNCTION     0.39     1.85    10.96     0  02:12        1.85
  YSB6556              JUNCTION     0.34     1.76    10.93     0  02:12        1.76
  CC-1                 OUTFALL      0.00     0.00     0.00     0  00:00        0.00
  CC-2                 OUTFALL      0.00     0.00     0.00     0  00:00        0.00
  JK-1                 OUTFALL      0.00     0.00     0.00     0  00:00        0.00
  JK-2                 OUTFALL      0.00     0.00     0.00     0  00:00        0.00
  WSC                  OUTFALL      0.30     0.52     1.19     0  02:16        0.52
  CC-storage           STORAGE      0.72     1.47     6.97     0  02:38        1.47
  JK-storage           STORAGE      1.44     4.21     5.01     0  02:21        4.21
  XR-storage           STORAGE      7.88     9.26     7.26     0  08:00        9.26
  
  
  *******************
  Node Inflow Summary
  *******************
  
  -------------------------------------------------------------------------------------------------
                                  Maximum  Maximum                  Lateral       Total        Flow
                                  Lateral    Total  Time of Max      Inflow      Inflow     Balance
                                   Inflow   Inflow   Occurrence      Volume      Volume       Error
  Node                 Type           LPS      LPS  days hr:min    10^6 ltr    10^6 ltr     Percent
  -------------------------------------------------------------------------------------------------
  HS02004478           JUNCTION      0.00  2305.69     0  02:11           0        8.01      -0.012
  HS02004479           JUNCTION      0.00   439.95     0  02:07           0       0.773       0.119
  HS02004480           JUNCTION      0.00  2101.55     0  02:06           0        5.87       0.046
  HS02004770           JUNCTION   1800.62  1800.62     0  02:13        2.56        2.78       0.106
  HS02004777           JUNCTION      0.03   762.63     0  02:04    0.000864        1.69       0.302
  HS02004785           JUNCTION      0.15   784.53     0  02:04     0.00432        1.69       0.013
  HS02004788           JUNCTION    654.11   856.76     0  02:13       0.991        2.68      -0.003
  HS02004792           JUNCTION   2177.21  3023.14     0  02:14        3.31        5.99       0.006
  HS02004799           JUNCTION    421.68  1736.96     0  02:06       0.556        5.34       0.048
  HS02004802           JUNCTION      0.00  1233.65     0  02:15           0        2.28       0.171
  HS02004807           JUNCTION    530.57  1715.86     0  02:13       0.681        2.46       0.168
  HS02004817           JUNCTION      0.60  1196.91     0  02:15      0.0173        1.83       0.904
  HS02004824           JUNCTION    675.28  1245.10     0  02:15         1.2        1.98       0.015
  HS02004830           JUNCTION      0.15   644.34     0  02:06     0.00432       0.935       0.115
  HS02004837           JUNCTION    480.58   837.88     0  02:05       0.828        1.21       0.060
  HS02004842           JUNCTION      0.00   835.15     0  02:06           0        0.67       1.948
  HS02004848           JUNCTION    612.93  1082.41     0  02:07        1.17        1.65      -0.029
  HS02004852           JUNCTION      0.00  1047.15     0  02:07           0        1.48       0.048
  HS02004856           JUNCTION    214.56  1089.50     0  02:07       0.281        1.76       0.027
  HS02004862           JUNCTION    286.56  1217.34     0  02:07       0.496        2.25      -0.030
  HS02004870           JUNCTION    287.47  1241.84     0  02:15       0.373        2.62      -0.005
  HS02004876           JUNCTION    278.65  1507.34     0  02:15       0.386        3.01       0.028
  HS02004881           JUNCTION    157.49  1657.40     0  02:13       0.197         3.2      -0.006
  HS02004901           JUNCTION    441.58   696.84     0  02:13       0.573       0.875       0.195
  WS02001211           JUNCTION      7.35   204.80     0  02:50       0.212        5.44       0.611
  WS02001212           JUNCTION      0.00   212.76     0  02:50           0        5.41       0.290
  WS02001213           JUNCTION      0.00   217.99     0  02:50           0        5.39       0.333
  WS02003059           JUNCTION      0.00   223.16     0  02:49           0        5.38       0.597
  WS02003060           JUNCTION     16.53  1523.54     0  02:15       0.476        14.1       0.105
  WS02003066           JUNCTION      0.00  1329.21     0  02:13           0        8.28       0.019
  WS02003067           JUNCTION      0.00  1328.25     0  02:13           0        8.29       0.054
  WS02003069           JUNCTION      0.32  1523.32     0  02:15     0.00922        14.1       0.111
  WS02003072           JUNCTION      0.00  1523.33     0  02:16           0        14.1       0.150
  WS02003073           JUNCTION      1.82  1525.31     0  02:16      0.0524        14.1       0.156
  WS02004138           JUNCTION      0.00   380.00     0  00:00           0        5.25       0.052
  WS02004139           JUNCTION      0.32   190.59     0  00:29     0.00924        5.26       0.508
  WS02004401           JUNCTION      0.00  1328.59     0  02:13           0         8.4       0.128
  WS02004402           JUNCTION      0.00  1329.27     0  02:13           0        8.39       0.130
  WS02004403           JUNCTION      0.00  1330.06     0  02:13           0        8.37       0.129
  WS02004404           JUNCTION      0.16  1330.70     0  02:13     0.00467        8.37       0.107
  WS02004405           JUNCTION      0.04  1330.86     0  02:13      0.0011        8.36       0.153
  WS02004406           JUNCTION      0.00  1330.92     0  02:13           0        8.35       0.263
  WS02004407           JUNCTION      0.00  1330.74     0  02:13           0        8.33       0.019
  WS02004409           JUNCTION      0.00  1328.03     0  02:13           0        8.32       0.040
  WS02004410           JUNCTION      0.00  1328.38     0  02:13           0        8.32       0.062
  WS02004411           JUNCTION      0.00  1328.24     0  02:13           0        8.32       0.076
  WS02004412           JUNCTION      0.00  1328.06     0  02:14           0        8.31       0.098
  WS02004413           JUNCTION      0.00  1328.28     0  02:13           0         8.3       0.173
  WS02006109           JUNCTION      1.23  1289.97     0  02:11      0.0354        8.24       0.128
  WS02006110           JUNCTION      0.00  1124.99     0  02:29           0        7.97       0.096
  WS02006111           JUNCTION      0.00  1125.28     0  02:29           0        7.96       0.012
  WS02006112           JUNCTION    358.02  1328.79     0  02:13        0.47        8.43       0.244
  WS02006113           JUNCTION      0.00  1125.03     0  02:29           0        7.96       0.029
  WS02006115           JUNCTION      0.00  1328.65     0  02:12           0        8.41       0.086
  WS02006116           JUNCTION      0.00  1328.70     0  02:13           0         8.4       0.053
  WS02006228           JUNCTION      0.00  1288.69     0  02:11           0         8.2       0.055
  WS02006229           JUNCTION      0.00  2306.03     0  02:11           0        10.3       0.088
  WS02006230           JUNCTION     10.28  1026.90     0  02:11       0.296        4.53       0.230
  WS02006231           JUNCTION      0.00   537.35     0  03:55           0        3.36      -0.165
  WS02006232           JUNCTION      0.00   537.12     0  03:55           0        3.36       0.190
  WS02006234           JUNCTION      0.00   536.68     0  03:55           0        3.34      -0.340
  WS02006235           JUNCTION      0.00   535.76     0  03:55           0        3.35       0.393
  WS02006238           JUNCTION      0.00   421.81     0  03:32           0        3.07      -0.202
  WS02006239           JUNCTION      0.00   422.47     0  03:32           0        3.02      -0.144
  WS02006240           JUNCTION      0.00   423.31     0  03:32           0        2.99       0.041
  WS02006242           JUNCTION      0.00   423.79     0  03:32           0        2.99       0.005
  WS02006243           JUNCTION      0.00   424.25     0  03:32           0        2.63      -0.288
  WS02006245           JUNCTION      0.00   431.13     0  01:38           0        2.65       0.476
  WS02006247           JUNCTION      0.00   442.09     0  01:37           0        2.65      -0.021
  WS02006248           JUNCTION      0.00   471.14     0  01:37           0        2.87      -0.055
  WS02006249           JUNCTION      0.00  1377.16     0  02:13           0        5.95       0.127
  WS02006251           JUNCTION      0.08  1699.30     0  02:13     0.00222        6.13      -0.011
  WS02006252           JUNCTION      0.00   695.36     0  02:15           0        3.32      -0.228
  WS02006253           JUNCTION     41.67  1699.97     0  02:13      0.0476        3.29       0.028
  WS02006256           JUNCTION      0.00   300.00     0  00:00           0        0.93      -2.665
  WS02006280           JUNCTION      0.00  2304.87     0  02:11           0        7.99       0.010
  WS02006284           JUNCTION      0.10  2305.96     0  02:11     0.00275        7.99      -0.000
  WS02006287           JUNCTION      0.00  2305.99     0  02:11           0        7.99       0.011
  WSF200               JUNCTION      0.00  1329.40     0  02:13           0        8.28       0.009
  YS02001580           JUNCTION      0.00   124.33     0  02:04           0     0.00422      -2.317
  YS02001583           JUNCTION      0.00   154.67     0  02:04           0      0.0152      -4.827
  YS02001586           JUNCTION    770.78   770.99     0  02:15        1.57        1.58       0.080
  YS02001590           JUNCTION      0.00   317.92     0  02:10           0        1.23      -0.034
  YS02001593           JUNCTION      0.00   318.03     0  02:29           0        1.23       0.015
  YS02001596           JUNCTION      0.00   317.96     0  02:29           0        1.23       0.001
  YS02001600           JUNCTION      0.00   317.94     0  02:11           0        1.23       0.020
  YS02001601           JUNCTION   1410.82  1728.12     0  02:14        2.18        3.41       0.024
  YS02001602           JUNCTION      0.00   513.56     0  02:04           0        2.11       0.021
  YS02001605           JUNCTION      0.00   513.26     0  02:04           0        2.02       0.022
  YS02001607           JUNCTION      0.00   512.69     0  02:04           0        2.02       0.099
  YS02001610           JUNCTION      0.00   761.36     0  02:15           0        2.24       0.108
  YS02001613           JUNCTION      0.00   517.72     0  02:03           0        1.83       0.101
  YS02001616           JUNCTION      0.00   518.24     0  02:04           0        1.83       0.022
  YS02001619           JUNCTION   1376.76  1376.76     0  02:15        2.52        4.12       0.005
  YS02001622           JUNCTION      0.00   971.77     0  02:13           0         3.9       0.003
  YS02001625           JUNCTION      0.00  1343.18     0  02:16           0        4.06       0.218
  YS02001629           JUNCTION      0.00   935.23     0  02:07           0         3.3       0.029
  YS02001633           JUNCTION   1061.80  1401.28     0  02:07        1.59        4.67       0.075
  YS02001641           JUNCTION      0.00  1395.28     0  02:07           0        4.45       0.062
  YS02001644           JUNCTION    951.07  1826.14     0  02:07        1.38        5.83       0.059
  YS02001647           JUNCTION      0.00  1827.55     0  02:07           0        5.48       0.006
  YS02001649           JUNCTION      0.00  2108.70     0  02:07           0        6.74       0.006
  YS02001652           JUNCTION      0.00   956.92     0  02:13           0        1.26      -0.085
  YS02001655           JUNCTION      0.15   957.20     0  02:13     0.00443        1.26       0.019
  YS02001658           JUNCTION      0.00   956.39     0  02:13           0        1.25      -0.033
  YS02001661           JUNCTION      0.00   953.97     0  02:13           0        1.25      -0.011
  YS02001664           JUNCTION    935.40   935.40     0  02:13        1.25        1.25      -0.006
  YS02001745           JUNCTION    602.44   602.44     0  02:13       0.762       0.762       0.195
  YS02001748           JUNCTION      0.04   610.98     0  02:13      0.0013       0.762      -0.266
  YS02001751           JUNCTION      0.01   611.46     0  02:13    0.000317       0.767       0.087
  YS02001754           JUNCTION      0.26   611.93     0  02:13     0.00749       0.778      -0.152
  YS02001757           JUNCTION      0.00  3556.50     0  02:12           0          10       0.062
  YS02001759           JUNCTION    837.14  1462.27     0  02:13        1.05        2.51      -0.008
  YS02001762           JUNCTION      0.00   798.93     0  02:10           0        1.46       0.010
  YS02001765           JUNCTION      0.00   801.24     0  02:10           0        1.46       0.009
  YS02001767           JUNCTION      0.54   801.81     0  02:10      0.0154        1.46       0.014
  YS02001770           JUNCTION   1162.50  1162.50     0  02:14        1.61        1.65       0.001
  YS02001774           JUNCTION      0.00   559.29     0  02:13           0       0.224       0.476
  YS02001779           JUNCTION      0.01   558.60     0  02:13    0.000144       0.182      -0.234
  YS02001783           JUNCTION      0.00  1167.52     0  02:12           0         3.7       0.006
  YS02001784           JUNCTION      1.06  1168.75     0  02:12      0.0305        3.73       0.013
  YS02001786           JUNCTION      0.06  1169.05     0  02:12     0.00162        3.73       0.017
  YS02001788           JUNCTION      0.07  1168.74     0  02:12     0.00204        3.73       0.008
  YS02001790           JUNCTION      0.15  1180.94     0  02:11     0.00446        3.74       0.025
  YS02001791           JUNCTION      0.00  1289.65     0  02:11           0        3.74      -0.029
  YS02001793           JUNCTION      0.00  1249.57     0  02:11           0        3.74       0.006
  YS02001882           JUNCTION      0.00    47.12     0  02:06           0      0.0124       5.163
  YS02001884           JUNCTION      0.00    75.28     0  02:05           0      0.0481       5.545
  YS02001887           JUNCTION    911.67   912.01     0  02:13         1.1        1.14       0.397
  YS02001890           JUNCTION      0.00   912.99     0  02:13           0         1.1       0.471
  YS02001895           JUNCTION      0.00   517.40     0  02:16           0       0.975       0.139
  YS02001898           JUNCTION      0.00   517.48     0  02:15           0       0.974       0.029
  YS02001901           JUNCTION      0.00   517.74     0  02:16           0       0.976       0.326
  YS02001904           JUNCTION      0.00   517.72     0  02:16           0        0.98       0.291
  YS02001907           JUNCTION      0.00  2088.77     0  02:14           0        3.39       0.529
  YS02001910           JUNCTION      0.00  1539.88     0  02:14           0        2.41       0.296
  YS02001915           JUNCTION   1027.28  1539.03     0  02:14        1.53        2.45       0.063
  YS02001918           JUNCTION      0.00   513.83     0  02:14           0       0.952       0.010
  YS02001920           JUNCTION      2.87   513.71     0  02:14      0.0827       0.936       0.105
  YS02001923           JUNCTION      0.04   510.35     0  02:14     0.00109       0.838      -0.045
  YS02001926           JUNCTION      0.05   539.88     0  02:08      0.0015       0.817      -0.134
  YS02001929           JUNCTION    494.13   494.13     0  02:14       0.804       0.806      -0.062
  YS02006553           JUNCTION      0.00   803.24     0  02:28           0        2.14       0.559
  YS02006556           JUNCTION      0.00   803.10     0  02:28           0        2.15       0.379
  YS02006558           JUNCTION   1198.18  1198.18     0  02:13        1.61        3.73       0.092
  YS02006561           JUNCTION      0.00  1167.91     0  02:12           0         3.7       0.001
  YS02163301           JUNCTION      0.00   934.48     0  02:07           0        3.29       0.050
  YS02163601           JUNCTION      0.11  1400.14     0  02:07     0.00317        4.45       0.111
  YS02164001           JUNCTION      0.00  1398.31     0  02:07           0        4.45       0.056
  YSB1154              JUNCTION    479.53   479.53     0  02:14       0.665       0.665       0.225
  YSB1171              JUNCTION      0.00  1130.60     0  02:13           0        1.29       0.495
  YSB1174              JUNCTION    429.10   429.10     0  02:13       0.506       0.507       0.254
  YSB6556              JUNCTION      0.00   479.59     0  02:13           0       0.666       0.183
  CC-1                 OUTFALL       0.00   683.00     0  00:00           0         3.5       0.000
  CC-2                 OUTFALL       0.00   683.00     0  00:00           0         4.2       0.000
  JK-1                 OUTFALL       0.00  1000.00     0  00:00           0        1.88       0.000
  JK-2                 OUTFALL       0.00  1000.00     0  00:00           0        1.06       0.000
  WSC                  OUTFALL       0.00  1526.48     0  02:16           0        14.1       0.000
  CC-storage           STORAGE       0.00  3555.18     0  02:13           0        12.2      -0.260
  JK-storage           STORAGE       0.00  1250.18     0  02:11           0        3.89      -0.432
  XR-storage           STORAGE     200.00   200.00     0  00:00        5.76        6.36       0.001
  
  
  **********************
  Node Surcharge Summary
  **********************
  
  Surcharging occurs when water rises above the top of the highest conduit.
  ---------------------------------------------------------------------
                                               Max. Height   Min. Depth
                                   Hours       Above Crown    Below Rim
  Node                 Type      Surcharged         Meters       Meters
  ---------------------------------------------------------------------
  HS02004478           JUNCTION        0.45          0.667        0.273
  HS02004479           JUNCTION        0.57          0.886        0.164
  HS02004480           JUNCTION        0.60          0.953        0.147
  HS02004770           JUNCTION        0.52          0.720        0.000
  HS02004777           JUNCTION        0.52          0.780        0.000
  HS02004785           JUNCTION        0.47          0.790        0.000
  HS02004788           JUNCTION        0.46          0.720        0.000
  HS02004792           JUNCTION        0.57          0.900        0.000
  HS02004799           JUNCTION        0.69          1.060        0.000
  HS02004802           JUNCTION        0.61          1.092        0.118
  HS02004807           JUNCTION        0.60          1.220        0.000
  HS02004817           JUNCTION        1.12          1.740        0.000
  HS02004824           JUNCTION        0.47          1.310        0.000
  HS02004830           JUNCTION        0.45          1.330        0.000
  HS02004837           JUNCTION        0.41          1.340        0.000
  HS02004842           JUNCTION        0.53          1.520        0.000
  HS02004848           JUNCTION        0.38          1.370        0.000
  HS02004852           JUNCTION        0.40          1.420        0.000
  HS02004856           JUNCTION        0.39          1.300        0.000
  HS02004862           JUNCTION        0.42          1.300        0.000
  HS02004870           JUNCTION        0.44          1.400        0.000
  HS02004876           JUNCTION        0.51          1.396        0.164
  HS02004881           JUNCTION        0.49          1.149        0.301
  HS02004901           JUNCTION        0.52          0.720        0.000
  WS02004401           JUNCTION        1.48          0.934        0.726
  WS02004402           JUNCTION        1.51          0.877        0.863
  WS02004403           JUNCTION        1.52          0.794        1.236
  WS02004404           JUNCTION        1.71          0.800        1.980
  WS02004405           JUNCTION        1.67          0.747        2.053
  WS02004406           JUNCTION        1.64          0.628        1.822
  WS02004409           JUNCTION        0.88          0.416        1.944
  WS02004410           JUNCTION        0.86          0.321        2.219
  WS02004411           JUNCTION        0.79          0.225        2.305
  WS02004412           JUNCTION        0.71          0.118        2.192
  WS02004413           JUNCTION        1.15          0.152        2.048
  WS02006109           JUNCTION        2.22          1.820        0.000
  WS02006110           JUNCTION        1.92          1.699        0.151
  WS02006111           JUNCTION        1.13          1.225        0.645
  WS02006112           JUNCTION        1.92          1.617        0.063
  WS02006113           JUNCTION        1.13          1.171        0.759
  WS02006115           JUNCTION        1.33          1.034        1.216
  WS02006116           JUNCTION        1.35          0.983        1.307
  WS02006228           JUNCTION        2.21          2.200        0.000
  WS02006229           JUNCTION        0.84          1.045        0.025
  WS02006230           JUNCTION        1.76          1.570        0.000
  WS02006231           JUNCTION        1.85          1.486        0.044
  WS02006232           JUNCTION        2.11          1.480        0.000
  WS02006234           JUNCTION        1.94          1.240        0.000
  WS02006235           JUNCTION        1.98          1.290        0.000
  WS02006238           JUNCTION        2.01          1.430        0.000
  WS02006239           JUNCTION        1.96          1.290        0.000
  WS02006240           JUNCTION        1.93          1.217        0.173
  WS02006242           JUNCTION        2.02          0.820        0.000
  WS02006243           JUNCTION        1.84          0.770        0.000
  WS02006245           JUNCTION        1.82          0.771        0.079
  WS02006247           JUNCTION        1.83          0.599        0.161
  WS02006248           JUNCTION        1.80          0.380        0.000
  WS02006249           JUNCTION        1.80          0.390        0.000
  WS02006251           JUNCTION        1.67          1.159        0.021
  WS02006252           JUNCTION        2.07          1.100        0.000
  WS02006253           JUNCTION        1.67          2.087        0.393
  WS02006256           JUNCTION        6.92          2.050        0.000
  WS02006280           JUNCTION        0.70          0.692        0.088
  WS02006284           JUNCTION        0.63          0.668        0.132
  WS02006287           JUNCTION        0.55          0.737        0.153
  YS02001580           JUNCTION        0.56          0.450        0.000
  YS02001583           JUNCTION        0.57          0.382        0.118
  YS02001586           JUNCTION        0.66          0.510        0.000
  YS02001590           JUNCTION        0.73          0.723        0.027
  YS02001593           JUNCTION        0.73          0.674        0.166
  YS02001596           JUNCTION        0.83          0.925        0.145
  YS02001600           JUNCTION        0.97          1.183        0.007
  YS02001601           JUNCTION        1.30          1.440        0.000
  YS02001602           JUNCTION        1.20          1.270        0.000
  YS02001605           JUNCTION        1.15          1.180        0.000
  YS02001607           JUNCTION        0.69          0.649        0.031
  YS02001610           JUNCTION        0.71          0.680        0.000
  YS02001613           JUNCTION        0.68          0.665        0.035
  YS02001616           JUNCTION        0.64          0.610        0.000
  YS02001619           JUNCTION        0.63          0.610        0.000
  YS02001622           JUNCTION        0.63          0.582        0.038
  YS02001625           JUNCTION        0.79          0.780        0.000
  YS02001629           JUNCTION        0.58          0.470        0.000
  YS02001633           JUNCTION        0.80          0.995        0.065
  YS02001641           JUNCTION        0.73          0.952        0.148
  YS02001644           JUNCTION        0.69          0.920        0.000
  YS02001647           JUNCTION        0.49          0.768        0.132
  YS02001649           JUNCTION        0.58          0.987        0.063
  YS02001652           JUNCTION        0.42          0.851        0.279
  YS02001655           JUNCTION        0.29          0.781        0.419
  YS02001658           JUNCTION        0.18          0.711        0.589
  YS02001661           JUNCTION        0.05          0.305        1.085
  YS02001748           JUNCTION        0.11          0.615        0.575
  YS02001751           JUNCTION        0.21          0.684        0.516
  YS02001754           JUNCTION        0.32          0.686        0.464
  YS02001757           JUNCTION        0.62          0.991        0.219
  YS02001759           JUNCTION        0.54          0.991        0.219
  YS02001762           JUNCTION        0.51          0.982        0.168
  YS02001765           JUNCTION        0.46          0.951        0.149
  YS02001767           JUNCTION        0.44          0.934        0.096
  YS02001770           JUNCTION        0.43          0.920        0.000
  YS02001774           JUNCTION        0.49          0.999        0.051
  YS02001779           JUNCTION        0.33          0.680        0.000
  YS02001783           JUNCTION        0.50          0.500        1.100
  YS02001784           JUNCTION        0.48          0.362        1.128
  YS02001786           JUNCTION        0.37          0.102        1.328
  YS02001882           JUNCTION        0.45          0.674        0.156
  YS02001884           JUNCTION        0.46          0.708        0.162
  YS02001887           JUNCTION        0.49          0.796        0.154
  YS02001890           JUNCTION        0.50          0.760        0.000
  YS02001895           JUNCTION        0.44          0.566        0.184
  YS02001898           JUNCTION        0.43          0.538        0.202
  YS02001901           JUNCTION        0.48          0.680        0.190
  YS02001904           JUNCTION        0.47          0.642        0.208
  YS02001907           JUNCTION        0.70          0.950        0.000
  YS02001910           JUNCTION        0.53          0.957        0.143
  YS02001915           JUNCTION        0.45          0.904        0.096
  YS02001918           JUNCTION        0.37          0.810        0.000
  YS02001920           JUNCTION        0.38          1.140        0.000
  YS02001923           JUNCTION        0.11          0.820        0.000
  YS02001926           JUNCTION        0.13          0.900        0.000
  YS02001929           JUNCTION        0.01          0.780        0.000
  YS02006553           JUNCTION        0.72          0.987        0.203
  YS02006556           JUNCTION        0.61          0.935        0.415
  YS02006558           JUNCTION        0.60          0.926        0.474
  YS02006561           JUNCTION        0.33          0.194        0.956
  YS02163301           JUNCTION        0.79          0.918        0.112
  YS02163601           JUNCTION        0.83          1.027        0.053
  YS02164001           JUNCTION        0.74          0.941        0.159
  YSB1154              JUNCTION        0.79          1.269        0.131
  YSB1171              JUNCTION        0.79          1.100        0.000
  YSB1174              JUNCTION        0.72          1.153        0.097
  YSB6556              JUNCTION        0.67          1.063        0.037
  
  
  *********************
  Node Flooding Summary
  *********************
  
  Flooding refers to all water that overflows a node, whether it ponds or not.
  --------------------------------------------------------------------------
                                                             Total   Maximum
                                 Maximum   Time of Max       Flood    Ponded
                        Hours       Rate    Occurrence      Volume     Depth
  Node                 Flooded       LPS   days hr:min    10^6 ltr    Meters
  --------------------------------------------------------------------------
  HS02004770              0.35   1345.73      0  02:14       0.779     0.000
  HS02004777              0.01     34.86      0  02:05       0.000     0.000
  HS02004785              0.01    144.07      0  02:05       0.000     0.000
  HS02004788              0.01    219.23      0  02:05       0.001     0.000
  HS02004792              0.35   1881.05      0  02:14       1.210     0.000
  HS02004799              0.20    267.68      0  02:13       0.113     0.000
  HS02004807              0.12    483.58      0  02:13       0.132     0.000
  HS02004817              0.01     18.45      0  02:07       0.000     0.000
  HS02004824              0.05     49.26      0  02:15       0.005     0.000
  HS02004830              0.01     32.45      0  02:07       0.000     0.000
  HS02004837              0.01     49.78      0  02:07       0.000     0.000
  HS02004842              0.05    192.18      0  02:07       0.004     0.000
  HS02004848              0.01    247.99      0  02:07       0.001     0.000
  HS02004852              0.01     79.99      0  02:07       0.000     0.000
  HS02004856              0.01     44.81      0  02:07       0.000     0.000
  HS02004862              0.05    287.93      0  02:07       0.007     0.000
  HS02004870              0.01    366.07      0  02:07       0.000     0.000
  HS02004901              0.41    696.80      0  02:13       0.658     0.000
  WS02006109              0.40    320.31      0  02:13       0.256     0.000
  WS02006228              0.01      0.51      0  02:04       0.000     0.000
  WS02006230              0.64    573.98      0  02:11       0.893     0.000
  WS02006232              0.15      1.86      0  02:04       0.000     0.000
  WS02006234              0.69    128.30      0  02:29       0.232     0.000
  WS02006235              0.01     21.61      0  03:02       0.000     0.000
  WS02006238              0.01     10.67      0  03:02       0.000     0.000
  WS02006239              0.01      4.99      0  03:02       0.000     0.000
  WS02006242              0.77    137.86      0  02:04       0.343     0.000
  WS02006243              0.01      1.25      0  03:02       0.000     0.000
  WS02006248              1.09    340.43      0  02:03       1.067     0.000
  WS02006249              1.67   1316.09      0  02:13       3.908     0.000
  WS02006252              0.44    694.30      0  02:15       0.491     0.000
  WS02006256              0.86    294.62      0  02:34       0.515     0.000
  YS02001580              0.01    101.82      0  02:04       0.000     0.000
  YS02001586              0.45    453.37      0  02:15       0.345     0.000
  YS02001601              0.59   1330.06      0  02:14       1.296     0.000
  YS02001602              0.47     62.03      0  02:15       0.096     0.000
  YS02001605              0.01      0.55      0  02:04       0.000     0.000
  YS02001610              0.42    760.87      0  02:15       0.628     0.000
  YS02001616              0.01      0.62      0  02:10       0.000     0.000
  YS02001619              0.01      0.84      0  02:12       0.000     0.000
  YS02001625              0.37   1343.16      0  02:16       0.964     0.000
  YS02001629              0.12    249.82      0  02:12       0.061     0.000
  YS02001644              0.16    996.27      0  02:13       0.341     0.000
  YS02001770              0.01      5.78      0  02:10       0.000     0.000
  YS02001779              0.14    558.51      0  02:13       0.166     0.000
  YS02001890              0.17    398.54      0  02:13       0.115     0.000
  YS02001907              0.32   2088.72      0  02:14       1.244     0.000
  YS02001918              0.01    141.71      0  02:08       0.001     0.000
  YS02001920              0.01     45.32      0  02:08       0.000     0.000
  YS02001923              0.01     98.14      0  02:08       0.000     0.000
  YS02001926              0.01    163.64      0  02:08       0.001     0.000
  YS02001929              0.01    127.06      0  02:08       0.000     0.000
  YSB1171                 0.27   1130.55      0  02:13       0.633     0.000
  
  
  **********************
  Storage Volume Summary
  **********************
  
  --------------------------------------------------------------------------------------------------
                         Average     Avg  Evap Exfil       Maximum     Max    Time of Max    Maximum
                          Volume    Pcnt  Pcnt  Pcnt        Volume    Pcnt     Occurrence    Outflow
  Storage Unit           1000 m3    Full  Loss  Loss       1000 m3    Full    days hr:min        LPS
  --------------------------------------------------------------------------------------------------
  CC-storage               2.013      31     0     0         4.099      64       0  02:38    1783.53
  JK-storage               0.072      25     0     0         0.212      73       0  02:21    2300.00
  XR-storage               0.946      66     0     0         1.111      77       0  08:00     380.00
  
  
  ***********************
  Outfall Loading Summary
  ***********************
  
  -----------------------------------------------------------
                         Flow       Avg       Max       Total
                         Freq      Flow      Flow      Volume
  Outfall Node           Pcnt       LPS       LPS    10^6 ltr
  -----------------------------------------------------------
  CC-1                  28.37    683.00    683.00       3.497
  CC-2                  32.89    683.00    683.00       4.201
  JK-1                   8.83   1000.00   1000.00       1.875
  JK-2                   5.14   1000.00   1000.00       1.058
  WSC                   99.95    631.88   1526.48      14.087
  -----------------------------------------------------------
  System                35.04   3997.88   4811.90      24.718
  
  
  ********************
  Link Flow Summary
  ********************
  
  -----------------------------------------------------------------------------
                                 Maximum  Time of Max   Maximum    Max/    Max/
                                  |Flow|   Occurrence   |Veloc|    Full    Full
  Link                 Type          LPS  days hr:min     m/sec    Flow   Depth
  -----------------------------------------------------------------------------
  1                    CONDUIT   1526.48     0  02:16      3.71    0.53    0.52
  HS02004478WS02006287 CONDUIT   2305.99     0  02:11      2.61    0.65    1.00
  HS02004479HS02004480 CONDUIT    440.14     0  02:07      0.63    0.43    1.00
  HS02004480HS02004478 CONDUIT   2106.78     0  02:06      3.01    8.87    1.00
  HS02004770HS02004777 CONDUIT    762.60     0  02:04      1.09    1.39    1.00
  HS02004777HS02004785 CONDUIT    784.38     0  02:04      1.18    0.97    1.00
  HS02004785HS02004788 CONDUIT    610.68     0  02:30      1.35    4.60    1.00
  HS02004788HS02004792 CONDUIT    856.59     0  02:13      1.44    0.57    1.00
  HS02004792HS02004799 CONDUIT   1568.32     0  02:06      2.24    0.96    1.00
  HS02004799HS02004480 CONDUIT   1734.16     0  02:06      2.48    2.19    1.00
  HS02004802HS02004478 CONDUIT   1233.34     0  02:15      1.76    1.09    1.00
  HS02004807HS02004802 CONDUIT   1233.65     0  02:15      1.76    2.36    1.00
  HS02004817HS02004807 CONDUIT   1196.82     0  02:14      1.71    0.71    1.00
  HS02004817HS02004824 CONDUIT   1196.31     0  02:15      1.71    0.54    1.00
  HS02004824HS02004830 CONDUIT    644.19     0  02:06      0.94    0.84    1.00
  HS02004830HS02004837 CONDUIT    649.86     0  02:05      1.02    0.65    1.00
  HS02004837HS02004842 CONDUIT    835.15     0  02:06      1.19    0.50    1.00
  HS02004842HS02004848 CONDUIT    833.95     0  02:06      1.32    0.49    1.00
  HS02004848HS02004852 CONDUIT   1047.15     0  02:07      1.61    1.18    1.00
  HS02004852HS02004856 CONDUIT    993.72     0  02:07      1.49    1.14    1.00
  HS02004856HS02004862 CONDUIT   1092.97     0  02:07      1.71    1.09    1.00
  HS02004862HS02004870 CONDUIT   1104.21     0  02:07      1.79    1.19    1.00
  HS02004870HS02004876 CONDUIT   1241.90     0  02:15      1.77    0.82    1.00
  HS02004876HS02004881 CONDUIT   1507.25     0  02:15      2.15   16.03    1.00
  HS02004881HS02006253 CONDUIT   1658.30     0  02:13      2.37    0.32    1.00
  HS02004901HS02004770 CONDUIT    265.79     0  02:26      0.38    1.00    1.00
  WS02001211WS02001212 CONDUIT    212.76     0  02:50      0.54    0.16    0.70
  WS02001212WS02001213 CONDUIT    217.99     0  02:50      1.04    0.34    0.57
  WS02001213WS02003059 CONDUIT    223.16     0  02:49      0.47    0.37    0.90
  WS02003059WS02003060 CONDUIT    229.25     0  02:49      0.66    0.15    0.82
  WS02003060WS02003069 CONDUIT   1523.00     0  02:15      2.09    0.60    0.61
  WS02003066WSF200     CONDUIT   1329.40     0  02:13      3.26    0.22    0.39
  WS02003067WS02003066 CONDUIT   1329.21     0  02:13      2.03    0.43    0.56
  WS02003069WS02003072 CONDUIT   1523.33     0  02:16      1.90    0.73    0.67
  WS02003072WS02003073 CONDUIT   1523.49     0  02:16      2.06    3.29    0.62
  WS02004138WS02004139 CONDUIT    190.27     0  00:29      2.16    0.04    0.42
  WS02004139WS02001211 CONDUIT    197.45     0  02:50      0.54    0.25    0.61
  WS02004401WS02004402 CONDUIT   1329.27     0  02:13      1.69    1.60    1.00
  WS02004402WS02004403 CONDUIT   1330.06     0  02:13      1.69    1.91    1.00
  WS02004403WS02004404 CONDUIT   1330.54     0  02:13      1.69    0.96    1.00
  WS02004404WS02004405 CONDUIT   1330.82     0  02:13      1.69   13.04    1.00
  WS02004405WS02004406 CONDUIT   1330.92     0  02:13      1.69    2.63    1.00
  WS02004406WS02004407 CONDUIT   1330.74     0  02:13      1.73    0.59    0.99
  WS02004407WS02004409 CONDUIT   1328.03     0  02:13      1.73    0.47    0.99
  WS02004409WS02004410 CONDUIT   1328.38     0  02:13      1.69    1.72    1.00
  WS02004410WS02004411 CONDUIT   1328.24     0  02:13      1.69    1.81    1.00
  WS02004411WS02004412 CONDUIT   1328.06     0  02:14      1.69    1.89    1.00
  WS02004412WS02004413 CONDUIT   1328.28     0  02:13      1.69    0.89    1.00
  WS02004413WS02003067 CONDUIT   1328.25     0  02:13      2.05    0.57    0.77
  WS02006109WS02006110 CONDUIT   1124.99     0  02:29      2.24    2.16    1.00
  WS02006110WS02006113 CONDUIT   1125.03     0  02:29      2.24    1.02    1.00
  WS02006111WS02006112 CONDUIT   1125.28     0  02:29      2.24    0.54    1.00
  WS02006112WS02006115 CONDUIT   1328.65     0  02:12      1.69    0.78    1.00
  WS02006113WS02006111 CONDUIT   1125.28     0  02:29      2.66    1.35    1.00
  WS02006115WS02006116 CONDUIT   1328.70     0  02:13      1.69    1.71    1.00
  WS02006116WS02004401 CONDUIT   1328.59     0  02:13      1.69    1.83    1.00
  WS02006228WS02006109 CONDUIT   1288.74     0  02:11      2.56    5.63    1.00
  WS02006229WS02006228 CONDUIT   1288.69     0  02:11      2.56    4.27    1.00
  WS02006230WS02006229 CONDUIT   1016.62     0  02:11      2.64   22.62    1.00
  WS02006231WS02006230 CONDUIT    543.85     0  03:55      1.44    8.25    1.00
  WS02006232WS02006231 CONDUIT    537.35     0  03:55      1.40    1.13    1.00
  WS02006234WS02006232 CONDUIT    537.12     0  03:55      1.41    1.09    1.00
  WS02006235WS02006234 CONDUIT    536.68     0  03:55      1.39    5.66    1.00
  WS02006238WS02006235 CONDUIT    420.66     0  03:32      1.45    0.94    1.00
  WS02006239WS02006238 CONDUIT    421.81     0  03:32      1.12    1.35    1.00
  WS02006240WS02006239 CONDUIT    422.47     0  03:32      1.28    1.33    1.00
  WS02006242WS02006240 CONDUIT    423.31     0  03:32      1.17    1.68    1.00
  WS02006243WS02006242 CONDUIT    423.79     0  03:32      1.34    0.91    1.00
  WS02006245WS02006243 CONDUIT    424.25     0  03:32      1.40    1.25    1.00
  WS02006247WS02006245 CONDUIT    431.13     0  01:38      1.45    3.42    1.00
  WS02006248WS02006247 CONDUIT    442.09     0  01:37      1.43    0.96    1.00
  WS02006249WS02006248 CONDUIT    471.14     0  01:37      1.41    2.58    1.00
  WS02006251WS02006249 CONDUIT   1377.16     0  02:13      3.58    3.97    1.00
  WS02006252WS02006251 CONDUIT    416.56     0  01:55     24.74    1.53    1.00
  WS02006253WS02006251 CONDUIT   1699.23     0  02:13      4.42    5.10    1.00
  WS02006256WS02006235 CONDUIT    288.93     0  00:00      4.23    3.06    1.00
  WS02006280WS02006229 CONDUIT   2306.03     0  02:11      4.33    0.49    1.00
  WS02006284WS02006280 CONDUIT   2304.87     0  02:11      3.01    0.97    1.00
  WS02006287WS02006284 CONDUIT   2305.86     0  02:11      2.94    1.07    1.00
  WSF200WS02003060     CONDUIT   1329.27     0  02:14      2.31    0.29    0.51
  YS02001580YS02001583 CONDUIT    124.33     0  02:04      0.64    0.48    1.00
  YS02001583YS02001586 CONDUIT    154.67     0  02:04      0.65    0.23    1.00
  YS02001586YS02001590 CONDUIT    317.92     0  02:10      1.25    0.56    1.00
  YS02001590YS02001593 CONDUIT    318.03     0  02:29      1.12    2.00    1.00
  YS02001593YS02001596 CONDUIT    317.96     0  02:29      1.77    0.50    1.00
  YS02001596YS02001600 CONDUIT    317.94     0  02:11      1.25    0.62    1.00
  YS02001600YS02001601 CONDUIT    318.04     0  02:10      1.12    0.55    1.00
  YS02001601YS02001602 CONDUIT    513.56     0  02:04      1.82    1.85    1.00
  YS02001602YS02001605 CONDUIT    513.26     0  02:04      1.82   10.86    1.00
  YS02001605YS02001607 CONDUIT    512.69     0  02:04      1.81    2.81    1.00
  YS02001607YS02001610 CONDUIT    516.92     0  02:03      0.66    0.49    1.00
  YS02001610YS02001613 CONDUIT    517.72     0  02:03      0.66    0.60    1.00
  YS02001613YS02001616 CONDUIT    518.24     0  02:04      0.66    0.44    1.00
  YS02001616YS02001619 CONDUIT    502.15     0  02:04      0.67    0.87    1.00
  YS02001619YS02001622 CONDUIT    971.77     0  02:13      1.24    1.43    1.00
  YS02001622YS02001625 CONDUIT    972.84     0  02:13      1.24    0.52    1.00
  YS02001625YS02001629 CONDUIT    935.23     0  02:07      1.19    0.44    1.00
  YS02001629YS02163301 CONDUIT    934.48     0  02:07      1.19    1.15    1.00
  YS02001633YS02163601 CONDUIT   1400.03     0  02:07      1.78    1.47    1.00
  YS02001641YS02001644 CONDUIT   1395.36     0  02:07      1.78    4.51    1.00
  YS02001644YS02001647 CONDUIT   1827.55     0  02:07      2.33    1.07    1.00
  YS02001647YS02001649 CONDUIT   1834.92     0  02:07      2.37    0.97    1.00
  YS02001649YS02001757 CONDUIT   2102.28     0  02:07      2.68    1.28    1.00
  YS02001652YS02001649 CONDUIT    957.07     0  02:13      1.22    0.47    1.00
  YS02001655YS02001652 CONDUIT    956.92     0  02:13      1.31    0.46    1.00
  YS02001658YS02001655 CONDUIT    957.04     0  02:13      1.91    0.41    1.00
  YS02001661YS02001658 CONDUIT    956.39     0  02:13      2.36    0.38    1.00
  YS02001664YS02001661 CONDUIT    953.97     0  02:13      2.37    0.30    0.80
  YS02001745YS02001748 CONDUIT    610.93     0  02:13      2.23    0.24    0.90
  YS02001748YS02001751 CONDUIT    611.45     0  02:13      1.74    0.31    1.00
  YS02001751YS02001754 CONDUIT    611.67     0  02:13      1.46    0.29    1.00
  YS02001754YS02001757 CONDUIT    611.25     0  02:13      0.78    0.25    1.00
  YS02001757CaochengTiaoxuchi CONDUIT   3555.18     0  02:13      4.81    1.54    1.00
  YS02001759YS02001757 CONDUIT   1462.85     0  02:13      1.86    1.04    1.00
  YS02001762YS02001759 CONDUIT    795.83     0  02:10      1.01    0.92    1.00
  YS02001765YS02001762 CONDUIT    798.93     0  02:10      1.02    0.75    1.00
  YS02001767YS02001765 CONDUIT    801.24     0  02:10      1.02    1.01    1.00
  YS02001770YS02001767 CONDUIT    801.28     0  02:10      1.02    3.17    1.00
  YS02001774YS02001770 CONDUIT    559.29     0  02:13      0.71    0.36    1.00
  YS02001779YS02001774 CONDUIT    558.59     0  02:13      0.71    0.28    1.00
  YS02001783YS02001784 CONDUIT   1167.69     0  02:12      2.32    1.61    1.00
  YS02001784YS02001785 CONDUIT   1169.00     0  02:12      2.33    2.72    1.00
  YS02001786YS02001788 CONDUIT   1168.67     0  02:12      2.49    2.25    0.89
  YS02001788YS02001790 CONDUIT   1180.78     0  02:11      2.72    0.87    0.84
  YS02001790YS02001791 CONDUIT   1289.65     0  02:11      3.43    1.40    0.71
  YS02001791YS02001793 CONDUIT   1249.57     0  02:11      6.79    0.54    0.45
  YS02001793JiankangQianchi CONDUIT   1250.18     0  02:11      2.51    0.10    0.65
  YS02001882YS02001884 CONDUIT     47.12     0  02:06      0.11    0.05    1.00
  YS02001884YS02001887 CONDUIT     75.28     0  02:05      0.10    0.10    1.00
  YS02001887YS02001890 CONDUIT    912.99     0  02:13      1.16    1.56    1.00
  YS02001890YS02001895 CONDUIT    517.40     0  02:16      0.66    0.24    1.00
  YS02001895YS02001898 CONDUIT    517.48     0  02:15      0.66    0.90    1.00
  YS02001898YS02001901 CONDUIT    517.74     0  02:16      0.66    0.33    1.00
  YS02001901YS02001904 CONDUIT    517.72     0  02:16      0.66    0.80    1.00
  YS02001904YS02001907 CONDUIT    517.29     0  02:16      0.66    0.18    1.00
  YS02001907YS02006553 CONDUIT    803.24     0  02:28      0.89    0.94    1.00
  YS02001910YS02001907 CONDUIT   1540.01     0  02:14      1.96    0.87    1.00
  YS02001915YS02001910 CONDUIT   1539.88     0  02:14      1.96    0.76    1.00
  YS02001918YS02001915 CONDUIT    514.02     0  02:14      0.65    0.28    1.00
  YS02001920YS02001918 CONDUIT    513.83     0  02:14      0.67    0.50    1.00
  YS02001923YS02001920 CONDUIT    510.84     0  02:14      0.69    0.23    1.00
  YS02001926YS02001923 CONDUIT    510.31     0  02:14      0.96    0.73    1.00
  YS02001929YS02001926 CONDUIT    509.18     0  02:14      1.12    0.24    1.00
  YS02006553YS02006556 CONDUIT    803.10     0  02:28      1.02    0.69    1.00
  YS02006556YS02006558 CONDUIT    805.37     0  02:28      1.03    0.64    1.00
  YS02006558YS02006561 CONDUIT   1167.91     0  02:12      4.13    2.58    1.00
  YS02006561YS02001783 CONDUIT   1167.52     0  02:12      2.32    0.60    1.00
  YS02163301YS02001633 CONDUIT    933.69     0  02:07      1.19    0.88    1.00
  YS02163601YS02164001 CONDUIT   1398.31     0  02:07      1.78    1.24    1.00
  YS02164001YS02001641 CONDUIT   1395.28     0  02:07      1.78    1.91    1.00
  YSB1154YSB6556       CONDUIT    479.59     0  02:13      1.25    0.86    1.00
  YSB1171HS02004479    CONDUIT    439.95     0  02:07      0.88    0.29    1.00
  YSB1174YSB1171       CONDUIT    429.22     0  02:13      1.12    0.66    1.00
  YSB6556YSB1171       CONDUIT    479.88     0  02:14      1.25    0.49    1.00
  CC-R1                PUMP       683.00     0  00:00              1.00
  CC-R2                PUMP       683.00     0  00:00              1.00
  CC-S1                PUMP       200.00     0  00:00              1.00
  CC-S2                PUMP       200.00     0  00:00              1.00
  JK-R1                PUMP      1000.00     0  00:00              1.00
  JK-R2                PUMP      1000.00     0  00:00              1.00
  JK-S                 PUMP       300.00     0  00:00              1.00
  XR-1                 PUMP        95.00     0  00:00              1.00
  XR-2                 PUMP        95.00     0  00:00              1.00
  XR-3                 PUMP        95.00     0  00:00              1.00
  XR-4                 PUMP        95.00     0  00:00              1.00
  
  
  ***************************
  Flow Classification Summary
  ***************************
  
  -------------------------------------------------------------------------------------
                      Adjusted    ---------- Fraction of Time in Flow Class ---------- 
                       /Actual         Up    Down  Sub   Sup   Up    Down  Norm  Inlet 
  Conduit               Length    Dry  Dry   Dry   Crit  Crit  Crit  Crit  Ltd   Ctrl  
  -------------------------------------------------------------------------------------
  1                       1.00   0.00  0.00  0.00  0.00  1.00  0.00  0.00  0.35  0.00
  HS02004478WS02006287    1.00   0.10  0.00  0.00  0.62  0.28  0.00  0.00  0.60  0.00
  HS02004479HS02004480    1.00   0.04  0.00  0.00  0.96  0.00  0.00  0.00  0.11  0.00
  HS02004480HS02004478    1.00   0.09  0.00  0.00  0.51  0.00  0.00  0.40  0.00  0.00
  HS02004770HS02004777    1.00   0.00  0.09  0.00  0.91  0.00  0.00  0.00  0.03  0.00
  HS02004777HS02004785    1.00   0.00  0.00  0.00  1.00  0.00  0.00  0.00  0.12  0.00
  HS02004785HS02004788    1.00   0.00  0.00  0.00  1.00  0.00  0.00  0.00  0.00  0.00
  HS02004788HS02004792    1.00   0.00  0.00  0.00  0.99  0.01  0.00  0.00  0.91  0.00
  HS02004792HS02004799    1.00   0.00  0.00  0.00  0.99  0.01  0.00  0.00  0.87  0.00
  HS02004799HS02004480    1.00   0.00  0.04  0.00  0.90  0.00  0.06  0.00  0.00  0.00
  HS02004802HS02004478    1.00   0.09  0.00  0.00  0.91  0.00  0.00  0.00  0.03  0.00
  HS02004807HS02004802    1.00   0.09  0.00  0.00  0.91  0.00  0.00  0.01  0.00  0.00
  HS02004817HS02004807    1.00   0.00  0.09  0.00  0.91  0.00  0.00  0.00  0.01  0.00
  HS02004817HS02004824    1.00   0.00  0.00  0.00  1.00  0.00  0.00  0.00  0.83  0.00
  HS02004824HS02004830    1.00   0.00  0.00  0.00  1.00  0.00  0.00  0.00  0.01  0.00
  HS02004830HS02004837    1.00   0.00  0.00  0.00  1.00  0.00  0.00  0.00  0.89  0.00
  HS02004837HS02004842    1.00   0.00  0.00  0.00  1.00  0.00  0.00  0.00  0.11  0.00
  HS02004842HS02004848    1.00   0.00  0.09  0.00  0.91  0.00  0.00  0.00  0.56  0.00
  HS02004848HS02004852    1.00   0.09  0.00  0.00  0.91  0.00  0.00  0.00  0.70  0.00
  HS02004852HS02004856    1.00   0.09  0.01  0.00  0.91  0.00  0.00  0.00  0.68  0.00
  HS02004856HS02004862    1.00   0.00  0.11  0.00  0.89  0.00  0.00  0.00  0.74  0.00
  HS02004862HS02004870    1.00   0.00  0.00  0.00  1.00  0.00  0.00  0.00  0.04  0.00
  HS02004870HS02004876    1.00   0.00  0.00  0.00  0.98  0.01  0.00  0.00  0.86  0.00
  HS02004876HS02004881    1.00   0.02  0.00  0.00  0.76  0.22  0.00  0.00  0.00  0.00
  HS02004881HS02006253    1.00   0.03  0.03  0.00  0.51  0.04  0.00  0.40  0.23  0.00
  HS02004901HS02004770    1.00   0.09  0.00  0.00  0.91  0.00  0.00  0.00  0.00  0.00
  WS02001211WS02001212    1.00   0.00  0.03  0.00  0.97  0.00  0.00  0.00  0.00  0.00
  WS02001212WS02001213    1.00   0.03  0.00  0.00  0.52  0.00  0.45  0.00  0.00  0.00
  WS02001213WS02003059    1.00   0.00  0.00  0.00  0.99  0.00  0.00  0.00  0.00  0.00
  WS02003059WS02003060    1.00   0.00  0.00  0.00  1.00  0.00  0.00  0.00  0.03  0.00
  WS02003060WS02003069    1.00   0.00  0.00  0.00  0.99  0.01  0.00  0.00  0.51  0.00
  WS02003066WSF200        1.00   0.05  0.00  0.00  0.00  0.95  0.00  0.00  0.68  0.00
  WS02003067WS02003066    1.00   0.05  0.00  0.00  0.95  0.00  0.00  0.00  0.00  0.00
  WS02003069WS02003072    1.00   0.00  0.00  0.00  1.00  0.00  0.00  0.00  0.65  0.00
  WS02003072WS02003073    1.00   0.00  0.00  0.00  0.00  0.00  0.00  1.00  0.00  0.00
  WS02004138WS02004139    1.00   0.00  0.01  0.00  0.97  0.01  0.00  0.01  0.98  0.00
  WS02004139WS02001211    1.00   0.00  0.00  0.00  0.99  0.00  0.00  0.00  0.00  0.00
  WS02004401WS02004402    1.00   0.03  0.00  0.00  0.97  0.00  0.00  0.00  0.00  0.00
  WS02004402WS02004403    1.00   0.03  0.00  0.00  0.97  0.00  0.00  0.00  0.00  0.00
  WS02004403WS02004404    1.00   0.00  0.03  0.00  0.97  0.00  0.00  0.00  0.00  0.00
  WS02004404WS02004405    1.00   0.00  0.00  0.00  1.00  0.00  0.00  0.00  0.00  0.00
  WS02004405WS02004406    1.00   0.00  0.00  0.00  1.00  0.00  0.00  0.00  0.00  0.00
  WS02004406WS02004407    1.00   0.00  0.04  0.00  0.96  0.00  0.00  0.00  0.00  0.00
  WS02004407WS02004409    1.00   0.04  0.00  0.00  0.95  0.01  0.00  0.00  0.85  0.00
  WS02004409WS02004410    1.00   0.04  0.00  0.00  0.96  0.00  0.00  0.00  0.00  0.00
  WS02004410WS02004411    1.00   0.04  0.00  0.00  0.96  0.00  0.00  0.00  0.00  0.00
  WS02004411WS02004412    1.00   0.04  0.00  0.00  0.96  0.00  0.00  0.00  0.00  0.00
  WS02004412WS02004413    1.00   0.04  0.00  0.00  0.96  0.00  0.00  0.00  0.00  0.00
  WS02004413WS02003067    1.00   0.04  0.01  0.00  0.00  0.00  0.95  0.00  0.00  0.00
  WS02006109WS02006110    1.00   0.00  0.01  0.00  0.98  0.00  0.01  0.00  0.00  0.00
  WS02006110WS02006113    1.00   0.01  0.01  0.00  0.98  0.00  0.00  0.00  0.00  0.00
  WS02006111WS02006112    1.00   0.02  0.00  0.00  0.97  0.00  0.00  0.00  0.77  0.00
  WS02006112WS02006115    1.00   0.02  0.01  0.00  0.97  0.00  0.01  0.00  0.00  0.00
  WS02006113WS02006111    1.00   0.02  0.00  0.00  0.25  0.74  0.00  0.00  0.07  0.00
  WS02006115WS02006116    1.00   0.02  0.00  0.00  0.97  0.00  0.00  0.01  0.00  0.00
  WS02006116WS02004401    1.00   0.02  0.00  0.00  0.97  0.00  0.00  0.00  0.00  0.00
  WS02006228WS02006109    1.00   0.00  0.00  0.00  1.00  0.00  0.00  0.00  0.00  0.00
  WS02006229WS02006228    1.00   0.00  0.00  0.00  0.99  0.00  0.00  0.01  0.00  0.00
  WS02006230WS02006229    1.00   0.00  0.00  0.00  0.99  0.00  0.00  0.01  0.04  0.00
  WS02006231WS02006230    1.00   0.00  0.00  0.00  0.57  0.00  0.42  0.00  0.00  0.00
  WS02006232WS02006231    1.00   0.00  0.00  0.00  0.99  0.00  0.00  0.00  0.00  0.00
  WS02006234WS02006232    1.00   0.00  0.00  0.00  1.00  0.00  0.00  0.00  0.03  0.00
  WS02006235WS02006234    1.00   0.00  0.00  0.00  0.93  0.00  0.07  0.00  0.00  0.00
  WS02006238WS02006235    1.00   0.00  0.00  0.00  1.00  0.00  0.00  0.00  0.00  0.00
  WS02006239WS02006238    1.00   0.00  0.00  0.00  1.00  0.00  0.00  0.00  0.16  0.00
  WS02006240WS02006239    1.00   0.00  0.00  0.00  0.76  0.00  0.00  0.24  0.03  0.00
  WS02006242WS02006240    1.00   0.00  0.00  0.00  0.99  0.00  0.00  0.00  0.00  0.00
  WS02006243WS02006242    1.00   0.00  0.00  0.00  1.00  0.00  0.00  0.00  0.62  0.00
  WS02006245WS02006243    1.00   0.00  0.00  0.00  0.90  0.00  0.00  0.10  0.00  0.00
  WS02006247WS02006245    1.00   0.00  0.00  0.00  0.99  0.00  0.00  0.01  0.00  0.00
  WS02006248WS02006247    1.00   0.00  0.00  0.00  1.00  0.00  0.00  0.00  0.61  0.00
  WS02006249WS02006248    1.00   0.00  0.00  0.00  0.63  0.00  0.37  0.00  0.00  0.00
  WS02006251WS02006249    1.00   0.00  0.00  0.00  1.00  0.00  0.00  0.00  0.60  0.00
  WS02006252WS02006251    1.00   0.05  0.32  0.00  0.32  0.00  0.30  0.00  0.00  0.00
  WS02006253WS02006251    1.00   0.00  0.00  0.00  0.99  0.00  0.01  0.00  0.01  0.00
  WS02006256WS02006235    1.00   0.00  0.00  0.00  0.99  0.01  0.00  0.00  0.00  0.00
  WS02006280WS02006229    1.00   0.09  0.00  0.00  0.20  0.03  0.00  0.68  0.01  0.00
  WS02006284WS02006280    1.00   0.09  0.00  0.00  0.14  0.02  0.00  0.76  0.00  0.00
  WS02006287WS02006284    1.00   0.08  0.03  0.00  0.42  0.48  0.00  0.00  0.66  0.00
  WSF200WS02003060        1.00   0.00  0.05  0.00  0.44  0.50  0.00  0.00  0.63  0.00
  YS02001580YS02001583    1.00   0.24  0.49  0.00  0.27  0.00  0.00  0.00  0.65  0.00
  YS02001583YS02001586    1.00   0.25  0.35  0.00  0.39  0.00  0.00  0.00  0.66  0.00
  YS02001586YS02001590    1.00   0.09  0.00  0.00  0.65  0.03  0.00  0.23  0.37  0.00
  YS02001590YS02001593    1.00   0.09  0.00  0.00  0.15  0.00  0.76  0.00  0.00  0.00
  YS02001593YS02001596    1.00   0.09  0.00  0.00  0.18  0.01  0.00  0.72  0.02  0.00
  YS02001596YS02001600    1.00   0.09  0.00  0.00  0.28  0.03  0.00  0.60  0.04  0.00
  YS02001600YS02001601    1.00   0.09  0.00  0.00  0.91  0.00  0.00  0.00  0.61  0.00
  YS02001601YS02001602    1.00   0.08  0.00  0.00  0.91  0.00  0.00  0.00  0.00  0.00
  YS02001602YS02001605    1.00   0.09  0.00  0.00  0.91  0.00  0.00  0.00  0.00  0.00
  YS02001605YS02001607    1.00   0.09  0.00  0.00  0.91  0.00  0.00  0.00  0.00  0.00
  YS02001607YS02001610    1.00   0.09  0.00  0.00  0.91  0.00  0.00  0.00  0.02  0.00
  YS02001610YS02001613    1.00   0.09  0.00  0.00  0.91  0.00  0.00  0.00  0.01  0.00
  YS02001613YS02001616    1.00   0.09  0.00  0.00  0.91  0.00  0.00  0.00  0.01  0.00
  YS02001616YS02001619    1.00   0.09  0.00  0.00  0.91  0.00  0.00  0.00  0.00  0.00
  YS02001619YS02001622    1.00   0.09  0.00  0.00  0.91  0.00  0.00  0.00  0.29  0.00
  YS02001622YS02001625    1.00   0.09  0.00  0.00  0.91  0.00  0.00  0.00  0.05  0.00
  YS02001625YS02001629    1.00   0.09  0.03  0.00  0.21  0.00  0.68  0.00  0.00  0.00
  YS02001629YS02163301    1.00   0.10  0.00  0.00  0.90  0.00  0.00  0.00  0.00  0.00
  YS02001633YS02163601    1.00   0.00  0.00  0.00  0.99  0.00  0.00  0.00  0.15  0.00
  YS02001641YS02001644    1.00   0.00  0.00  0.00  1.00  0.00  0.00  0.00  0.00  0.00
  YS02001644YS02001647    1.00   0.00  0.11  0.00  0.89  0.00  0.00  0.00  0.00  0.00
  YS02001647YS02001649    1.00   0.00  0.11  0.00  0.44  0.45  0.00  0.00  0.57  0.00
  YS02001649YS02001757    1.00   0.00  0.00  0.00  0.52  0.47  0.00  0.00  0.48  0.00
  YS02001652YS02001649    1.00   0.00  0.00  0.00  0.97  0.03  0.00  0.00  0.76  0.00
  YS02001655YS02001652    1.00   0.00  0.00  0.00  0.23  0.02  0.00  0.75  0.06  0.00
  YS02001658YS02001655    1.00   0.00  0.09  0.00  0.55  0.36  0.00  0.00  0.71  0.00
  YS02001661YS02001658    1.00   0.09  0.00  0.00  0.34  0.57  0.00  0.00  0.69  0.00
  YS02001664YS02001661    1.00   0.08  0.00  0.00  0.74  0.17  0.00  0.00  0.85  0.00
  YS02001745YS02001748    1.00   0.00  0.00  0.00  0.09  0.01  0.00  0.89  0.04  0.00
  YS02001748YS02001751    1.00   0.00  0.00  0.00  0.72  0.28  0.00  0.00  0.78  0.00
  YS02001751YS02001754    1.00   0.00  0.00  0.00  0.19  0.01  0.00  0.81  0.03  0.00
  YS02001754YS02001757    1.00   0.00  0.00  0.00  1.00  0.00  0.00  0.00  0.85  0.00
  YS02001757CaochengTiaoxuchi    1.00   0.00  0.00  0.00  0.92  0.08  0.00  0.00  0.82  0.00
  YS02001759YS02001757    1.00   0.00  0.00  0.00  1.00  0.00  0.00  0.00  0.60  0.00
  YS02001762YS02001759    1.00   0.00  0.00  0.00  1.00  0.00  0.00  0.00  0.05  0.00
  YS02001765YS02001762    1.00   0.00  0.00  0.00  1.00  0.00  0.00  0.00  0.75  0.00
  YS02001767YS02001765    1.00   0.00  0.00  0.00  1.00  0.00  0.00  0.00  0.00  0.00
  YS02001770YS02001767    1.00   0.00  0.00  0.00  1.00  0.00  0.00  0.00  0.00  0.00
  YS02001774YS02001770    1.00   0.00  0.09  0.00  0.82  0.00  0.10  0.00  0.04  0.00
  YS02001779YS02001774    1.00   0.00  0.00  0.00  1.00  0.00  0.00  0.00  0.80  0.00
  YS02001783YS02001784    1.00   0.00  0.12  0.00  0.88  0.00  0.00  0.00  0.56  0.00
  YS02001784YS02001785    1.00   0.00  0.00  0.00  1.00  0.00  0.00  0.00  0.18  0.00
  YS02001786YS02001788    1.00   0.00  0.00  0.00  0.64  0.36  0.00  0.00  0.00  0.00
  YS02001788YS02001790    1.00   0.00  0.00  0.00  0.16  0.84  0.00  0.00  0.82  0.00
  YS02001790YS02001791    1.00   0.00  0.00  0.00  0.01  0.99  0.00  0.00  0.15  0.00
  YS02001791YS02001793    1.00   0.00  0.00  0.00  0.00  1.00  0.00  0.00  0.01  0.00
  YS02001793JiankangQianchi    1.00   0.00  0.00  0.00  0.96  0.04  0.00  0.00  0.98  0.00
  YS02001882YS02001884    1.00   0.10  0.00  0.00  0.90  0.00  0.00  0.00  0.00  0.00
  YS02001884YS02001887    1.00   0.05  0.03  0.00  0.92  0.00  0.00  0.00  0.00  0.00
  YS02001887YS02001890    1.00   0.00  0.00  0.00  0.97  0.00  0.03  0.00  0.00  0.00
  YS02001890YS02001895    1.00   0.00  0.10  0.00  0.90  0.00  0.00  0.00  0.00  0.00
  YS02001895YS02001898    1.00   0.10  0.00  0.00  0.88  0.00  0.02  0.00  0.00  0.00
  YS02001898YS02001901    1.00   0.10  0.00  0.00  0.89  0.00  0.00  0.00  0.01  0.00
  YS02001901YS02001904    1.00   0.10  0.00  0.00  0.90  0.00  0.00  0.00  0.00  0.00
  YS02001904YS02001907    1.00   0.00  0.10  0.00  0.90  0.00  0.00  0.00  0.00  0.00
  YS02001907YS02006553    1.00   0.00  0.02  0.00  0.97  0.00  0.00  0.00  0.00  0.00
  YS02001910YS02001907    1.00   0.00  0.00  0.00  0.97  0.00  0.00  0.03  0.12  0.00
  YS02001915YS02001910    1.00   0.00  0.00  0.00  0.97  0.03  0.00  0.00  0.17  0.00
  YS02001918YS02001915    1.00   0.00  0.00  0.00  0.97  0.02  0.00  0.00  0.76  0.00
  YS02001920YS02001918    1.00   0.00  0.00  0.00  1.00  0.00  0.00  0.00  0.00  0.00
  YS02001923YS02001920    1.00   0.00  0.00  0.00  1.00  0.00  0.00  0.00  0.93  0.00
  YS02001926YS02001923    1.00   0.00  0.06  0.00  0.07  0.00  0.87  0.00  0.00  0.00
  YS02001929YS02001926    1.00   0.00  0.09  0.00  0.91  0.00  0.00  0.00  0.82  0.00
  YS02006553YS02006556    1.00   0.01  0.00  0.00  0.99  0.00  0.00  0.00  0.03  0.00
  YS02006556YS02006558    1.00   0.00  0.00  0.00  1.00  0.00  0.00  0.00  0.00  0.00
  YS02006558YS02006561    1.00   0.12  0.00  0.00  0.07  0.81  0.00  0.00  0.18  0.00
  YS02006561YS02001783    1.00   0.12  0.00  0.00  0.11  0.77  0.00  0.00  0.69  0.00
  YS02163301YS02001633    1.00   0.00  0.10  0.00  0.90  0.00  0.00  0.00  0.00  0.00
  YS02163601YS02164001    1.00   0.00  0.07  0.00  0.93  0.00  0.00  0.00  0.00  0.00
  YS02164001YS02001641    1.00   0.01  0.06  0.00  0.93  0.00  0.00  0.00  0.06  0.00
  YSB1154YSB6556          1.00   0.08  0.00  0.00  0.92  0.00  0.00  0.00  0.02  0.00
  YSB1171HS02004479       1.00   0.04  0.00  0.00  0.95  0.00  0.00  0.01  0.10  0.00
  YSB1174YSB1171          1.00   0.05  0.02  0.00  0.93  0.00  0.00  0.00  0.00  0.00
  YSB6556YSB1171          1.00   0.04  0.04  0.00  0.92  0.00  0.00  0.00  0.00  0.00
  
  
  *************************
  Conduit Surcharge Summary
  *************************
  
  ----------------------------------------------------------------------------
                                                           Hours        Hours 
                         --------- Hours Full --------   Above Full   Capacity
  Conduit                Both Ends  Upstream  Dnstream   Normal Flow   Limited
  ----------------------------------------------------------------------------
  HS02004478WS02006287        0.45      0.45      0.61      0.01         0.01
  HS02004479HS02004480        0.61      0.61      0.63      0.01         0.01
  HS02004480HS02004478        0.55      0.60      0.55      1.56         0.55
  HS02004770HS02004777        0.52      0.52      0.52      0.08         0.05
  HS02004777HS02004785        0.48      0.48      0.52      0.01         0.01
  HS02004785HS02004788        0.46      0.48      0.46      1.30         0.41
  HS02004788HS02004792        0.46      0.46      0.57      0.01         0.01
  HS02004792HS02004799        0.57      0.57      0.69      0.01         0.01
  HS02004799HS02004480        0.60      0.60      0.69      0.77         0.01
  HS02004802HS02004478        0.56      0.56      0.62      0.13         0.01
  HS02004807HS02004802        0.60      0.60      0.61      0.26         0.26
  HS02004817HS02004807        0.60      0.60      1.12      0.01         0.01
  HS02004817HS02004824        0.47      0.47      1.12      0.01         0.01
  HS02004824HS02004830        0.45      0.45      0.47      0.01         0.01
  HS02004830HS02004837        0.41      0.41      0.45      0.01         0.01
  HS02004837HS02004842        0.41      0.41      0.53      0.01         0.01
  HS02004842HS02004848        0.38      0.38      0.53      0.01         0.01
  HS02004848HS02004852        0.38      0.38      0.40      0.02         0.01
  HS02004852HS02004856        0.40      0.40      0.42      0.01         0.01
  HS02004856HS02004862        0.39      0.39      0.42      0.01         0.01
  HS02004862HS02004870        0.42      0.42      0.44      0.20         0.19
  HS02004870HS02004876        0.44      0.44      0.51      0.01         0.01
  HS02004876HS02004881        0.49      0.51      0.49      1.34         0.49
  HS02004881HS02006253        0.49      0.49      1.67      0.01         0.01
  HS02004901HS02004770        0.52      0.52      0.52      0.01         0.01
  WS02003072WS02003073        0.01      0.01      0.01      2.55         0.01
  WS02004401WS02004402        1.48      1.48      1.51      1.22         1.20
  WS02004402WS02004403        1.51      1.51      1.52      1.47         1.46
  WS02004403WS02004404        1.52      1.52      1.71      0.01         0.02
  WS02004404WS02004405        1.67      1.71      1.67      3.04         1.67
  WS02004405WS02004406        1.64      1.67      1.64      1.90         1.64
  WS02004406WS02004407        0.01      0.01      1.64      0.01         0.01
  WS02004407WS02004409        0.01      0.01      0.88      0.01         0.01
  WS02004409WS02004410        0.86      0.88      0.86      1.31         0.86
  WS02004410WS02004411        0.79      0.86      0.79      1.38         0.79
  WS02004411WS02004412        0.71      0.79      0.71      1.44         0.71
  WS02004412WS02004413        0.71      0.71      1.15      0.01         0.01
  WS02004413WS02003067        0.01      0.01      1.15      0.01         0.01
  WS02006109WS02006110        1.92      1.92      2.30      1.93         0.01
  WS02006110WS02006113        1.13      1.13      2.27      0.28         0.01
  WS02006111WS02006112        1.13      1.13      2.48      0.01         0.01
  WS02006112WS02006115        1.33      1.33      1.92      0.01         0.01
  WS02006113WS02006111        1.13      1.13      1.13      1.18         1.13
  WS02006115WS02006116        1.34      1.34      1.35      1.30         1.30
  WS02006116WS02004401        1.47      1.47      1.48      1.40         1.40
  WS02006228WS02006109        2.22      2.30      2.22      2.67         2.22
  WS02006229WS02006228        2.21      2.25      2.21      2.53         2.21
  WS02006230WS02006229        2.36      2.47      2.36      3.16         1.39
  WS02006231WS02006230        1.75      1.76      1.87      2.78         0.93
  WS02006232WS02006231        1.85      1.85      2.11      0.04         0.14
  WS02006234WS02006232        1.97      1.97      2.11      0.03         0.05
  WS02006235WS02006234        1.93      1.94      1.98      2.61         0.90
  WS02006238WS02006235        2.00      2.00      2.05      0.01         0.32
  WS02006239WS02006238        2.01      2.02      2.01      1.51         0.56
  WS02006240WS02006239        1.96      1.98      1.96      1.48         0.52
  WS02006242WS02006240        1.93      1.93      2.09      1.87         0.77
  WS02006243WS02006242        1.86      1.86      2.02      0.01         0.02
  WS02006245WS02006243        1.83      1.83      1.84      0.66         0.46
  WS02006247WS02006245        1.82      1.84      1.82      2.26         0.70
  WS02006248WS02006247        1.80      1.80      1.83      0.01         0.02
  WS02006249WS02006248        1.79      1.80      1.80      1.32         0.01
  WS02006251WS02006249        1.79      1.79      1.80      1.99         1.74
  WS02006252WS02006251        2.06      2.06      2.07      1.79         0.07
  WS02006253WS02006251        1.79      1.79      1.81      0.73         0.03
  WS02006256WS02006235        2.80      2.84      6.84      0.45         0.01
  WS02006280WS02006229        0.72      0.72      0.84      0.01         0.01
  WS02006284WS02006280        0.63      0.63      0.70      0.01         0.01
  WS02006287WS02006284        0.55      0.55      0.64      0.29         0.29
  YS02001580YS02001583        0.56      0.56      0.59      0.01         0.01
  YS02001583YS02001586        0.57      0.57      0.66      0.01         0.01
  YS02001586YS02001590        0.67      0.67      0.73      0.01         0.01
  YS02001590YS02001593        0.73      0.73      0.75      0.77         0.01
  YS02001593YS02001596        0.74      0.74      0.83      0.01         0.01
  YS02001596YS02001600        0.87      0.87      0.97      0.01         0.01
  YS02001600YS02001601        1.03      1.03      1.30      0.01         0.01
  YS02001601YS02001602        1.20      1.20      1.34      0.99         0.01
  YS02001602YS02001605        1.15      1.15      1.20      2.19         0.01
  YS02001605YS02001607        1.11      1.15      1.11      1.27         1.11
  YS02001607YS02001610        0.69      0.69      0.71      0.01         0.01
  YS02001610YS02001613        0.68      0.68      0.71      0.01         0.01
  YS02001613YS02001616        0.64      0.64      0.68      0.01         0.01
  YS02001616YS02001619        0.63      0.63      0.64      0.01         0.03
  YS02001619YS02001622        0.63      0.63      0.63      0.76         0.60
  YS02001622YS02001625        0.63      0.63      0.79      0.01         0.01
  YS02001625YS02001629        0.58      0.58      0.79      0.01         0.01
  YS02001629YS02163301        0.78      0.78      0.79      0.25         0.23
  YS02001633YS02163601        0.80      0.80      0.83      0.39         0.38
  YS02001641YS02001644        0.69      0.73      0.69      1.38         0.68
  YS02001644YS02001647        0.49      0.49      0.69      0.05         0.01
  YS02001647YS02001649        0.49      0.49      0.58      0.01         0.01
  YS02001649YS02001757        0.57      0.58      0.62      0.23         0.18
  YS02001652YS02001649        0.44      0.44      0.58      0.01         0.01
  YS02001655YS02001652        0.29      0.29      0.41      0.01         0.01
  YS02001658YS02001655        0.18      0.18      0.29      0.01         0.01
  YS02001661YS02001658        0.05      0.05      0.18      0.01         0.01
  YS02001664YS02001661        0.01      0.01      0.08      0.01         0.01
  YS02001745YS02001748        0.01      0.01      0.11      0.01         0.01
  YS02001748YS02001751        0.16      0.16      0.21      0.01         0.01
  YS02001751YS02001754        0.21      0.21      0.32      0.01         0.01
  YS02001754YS02001757        0.35      0.35      0.62      0.01         0.01
  YS02001757CaochengTiaoxuchi        0.49      0.62      1.08      0.38         0.21
  YS02001759YS02001757        0.54      0.54      0.62      0.05         0.06
  YS02001762YS02001759        0.51      0.51      0.54      0.01         0.02
  YS02001765YS02001762        0.46      0.46      0.51      0.01         0.01
  YS02001767YS02001765        0.44      0.44      0.46      0.01         0.04
  YS02001770YS02001767        0.44      0.44      0.44      0.49         0.35
  YS02001774YS02001770        0.43      0.43      0.49      0.01         0.01
  YS02001779YS02001774        0.33      0.33      0.49      0.01         0.01
  YS02001783YS02001784        0.48      0.50      0.48      0.64         0.48
  YS02001784YS02001785        0.37      0.48      0.37      0.84         0.37
  YS02001786YS02001788        0.01      0.37      0.01      0.73         0.01
  YS02001790YS02001791        0.01      0.01      0.01      0.46         0.01
  YS02001793JiankangQianchi        0.01      0.01      6.40      0.01         0.01
  YS02001882YS02001884        0.45      0.45      0.46      0.01         0.01
  YS02001884YS02001887        0.48      0.48      0.49      0.01         0.01
  YS02001887YS02001890        0.50      0.50      0.51      0.12         0.01
  YS02001890YS02001895        0.44      0.44      0.53      0.01         0.01
  YS02001895YS02001898        0.43      0.43      0.44      0.01         0.01
  YS02001898YS02001901        0.44      0.44      0.48      0.01         0.01
  YS02001901YS02001904        0.47      0.47      0.48      0.01         0.01
  YS02001904YS02001907        0.47      0.47      0.72      0.01         0.01
  YS02001907YS02006553        0.85      0.85      0.91      0.01         0.01
  YS02001910YS02001907        0.53      0.53      0.70      0.01         0.01
  YS02001915YS02001910        0.45      0.45      0.53      0.01         0.01
  YS02001918YS02001915        0.37      0.37      0.45      0.01         0.01
  YS02001920YS02001918        0.37      0.37      0.38      0.01         0.01
  YS02001923YS02001920        0.33      0.33      0.38      0.01         0.01
  YS02001926YS02001923        0.11      0.11      0.14      0.01         0.01
  YS02001929YS02001926        0.01      0.01      0.14      0.01         0.01
  YS02006553YS02006556        0.61      0.61      0.72      0.01         0.01
  YS02006556YS02006558        0.66      0.66      0.73      0.01         0.01
  YS02006558YS02006561        0.40      0.60      0.40      0.80         0.40
  YS02006561YS02001783        0.33      0.33      0.50      0.01         0.01
  YS02163301YS02001633        0.79      0.79      0.82      0.01         0.01
  YS02163601YS02164001        0.74      0.74      0.83      0.10         0.01
  YS02164001YS02001641        0.73      0.74      0.73      0.67         0.55
  YSB1154YSB6556              0.67      0.67      0.79      0.01         0.01
  YSB1171HS02004479           0.57      0.57      0.79      0.01         0.01
  YSB1174YSB1171              0.72      0.72      1.02      0.01         0.01
  YSB6556YSB1171              0.67      0.67      1.18      0.01         0.01
  
  
  ***************
  Pumping Summary
  ***************
  
  ---------------------------------------------------------------------------------------------------------
                                                  Min       Avg       Max     Total     Power    % Time Off
                        Percent   Number of      Flow      Flow      Flow    Volume     Usage    Pump Curve
  Pump                 Utilized   Start-Ups       LPS       LPS       LPS  10^6 ltr     Kw-hr    Low   High
  ---------------------------------------------------------------------------------------------------------
  CC-R1                   17.81          25      0.00    683.00    683.00     3.503     62.83    0.0   40.7
  CC-R2                   21.38          25      0.00    683.00    683.00     4.206     74.59    0.0   44.1
  CC-S1                   27.42          18      0.00    200.00    200.00     1.579     11.27    0.0    0.0
  CC-S2                   27.89          17      0.00    200.00    200.00     1.606     11.38    0.0    0.0
  JK-R1                    6.51          18      0.00   1000.00   1000.00     1.876     17.61    0.0    0.0
  JK-R2                    3.68          15      0.00   1000.00   1000.00     1.059      8.67    0.0    0.0
  JK-S                    10.69          32      0.00    300.00    300.00     0.924     15.72    0.0    0.0
  XR-1                    97.91           2      0.00     95.00     95.00     2.679      9.62    0.0    0.0
  XR-2                    93.94           2      0.00     95.00     95.00     2.570      8.78    0.0    0.0
  XR-3                     0.00           1      0.00     95.00     95.00     0.000      0.00    0.0    0.0
  XR-4                     0.00           1      0.00     95.00     95.00     0.000      0.00    0.0    0.0
  

  Analysis begun on:  Fri Feb 24 05:44:13 2023
  Analysis ended on:  Fri Feb 24 05:44:16 2023
  Total elapsed time: 00:00:03