
  OWA STORM WATER MANAGEMENT MODEL - VERSION v5.1.14 (OWA 2023-01-25)
  --------------------------------------------------------------

  WARNING 04: minimum elevation drop used for Conduit WS02004404WS02004405
  WARNING 03: negative offset ignored for Link YS02001904YS02001907
  
  *********************************************************
  NOTE: The summary statistics displayed in this report are
  based on results found at every computational time step,  
  not just on results from each reporting time step.
  *********************************************************
  
  ****************
  Analysis Options
  ****************
  Flow Units ............... LPS
  Process Models:
    Rainfall/Runoff ........ YES
    RDII ................... NO
    Snowmelt ............... NO
    Groundwater ............ NO
    Flow Routing ........... YES
    Ponding Allowed ........ NO
    Water Quality .......... NO
  Infiltration Method ...... HORTON
  Flow Routing Method ...... DYNWAVE
  Surcharge Method ......... EXTRAN
  Starting Date ............ 08/28/2015 08:00:00
  Ending Date .............. 08/28/2015 16:00:00
  Antecedent Dry Days ...... 8.0
  Report Time Step ......... 00:01:00
  Wet Time Step ............ 00:01:00
  Dry Time Step ............ 00:01:00
  Routing Time Step ........ 30.00 sec
  Variable Time Step ....... YES
  Maximum Trials ........... 8
  Number of Threads ........ 1
  Head Tolerance ........... 0.001500 m
  
  
  **************************        Volume         Depth
  Runoff Quantity Continuity     hectare-m            mm
  **************************     ---------       -------
  Total Precipitation ......         2.219        36.638
  Evaporation Loss .........         0.000         0.000
  Infiltration Loss ........         0.215         3.549
  Surface Runoff ...........         1.944        32.098
  Final Storage ............         0.061         1.003
  Continuity Error (%) .....        -0.031
  
  
  **************************        Volume        Volume
  Flow Routing Continuity        hectare-m      10^6 ltr
  **************************     ---------     ---------
  Dry Weather Inflow .......         0.630         6.296
  Wet Weather Inflow .......         1.945        19.447
  Groundwater Inflow .......         0.000         0.000
  RDII Inflow ..............         0.000         0.000
  External Inflow ..........         0.105         1.045
  External Outflow .........         2.050        20.503
  Flooding Loss ............         0.622         6.221
  Evaporation Loss .........         0.000         0.000
  Exfiltration Loss ........         0.000         0.000
  Initial Stored Volume ....         0.303         3.031
  Final Stored Volume ......         0.322         3.218
  Continuity Error (%) .....        -0.414
  
  
  *************************
  Highest Continuity Errors
  *************************
  Node YS02001583 (-17.71%)
  Node YS02001884 (5.03%)
  Node WS02006256 (-3.79%)
  Node HS02004842 (2.05%)
  Node HS02004817 (1.58%)
  
  
  ***************************
  Time-Step Critical Elements
  ***************************
  Link WS02006280WS02006229 (47.48%)
  Link WS02006252WS02006251 (18.64%)
  Link WS02006238WS02006235 (11.81%)
  Link YS02001791YS02001793 (4.23%)
  Link WS02004404WS02004405 (3.61%)
  
  
  ********************************
  Highest Flow Instability Indexes
  ********************************
  Link WS02006113WS02006111 (21)
  Link WS02004404WS02004405 (21)
  Link WS02006256WS02006235 (21)
  Link WS02006238WS02006235 (19)
  Link WS02006229WS02006228 (19)
  
  
  *************************
  Routing Time Step Summary
  *************************
  Minimum Time Step           :     0.00 sec
  Average Time Step           :     2.47 sec
  Maximum Time Step           :     6.46 sec
  Percent in Steady State     :    -0.00
  Average Iterations per Step :     3.57
  Percent Not Converging      :    16.64
  
  
  ***************************
  Subcatchment Runoff Summary
  ***************************
  
  ------------------------------------------------------------------------------------------------------------------------------
                            Total      Total      Total      Total     Imperv       Perv      Total       Total     Peak  Runoff
                           Precip      Runon       Evap      Infil     Runoff     Runoff     Runoff      Runoff   Runoff   Coeff
  Subcatchment                 mm         mm         mm         mm         mm         mm         mm    10^6 ltr      LPS
  ------------------------------------------------------------------------------------------------------------------------------
  sub0                      36.64       0.00       0.00       0.94      32.82       1.63      34.45        0.03    21.66   0.940
  sub1                      36.64       0.00       0.00       1.56      31.36       2.47      33.83        0.22   128.91   0.923
  sub10                     36.64       0.00       0.00       1.11      32.43       1.82      34.25        0.38   224.73   0.935
  sub11                     36.64       0.00       0.00       1.10      32.44       1.84      34.28        0.40   257.17   0.936
  sub12                     36.64       0.00       0.00       1.78      30.70       2.98      33.68        0.29   211.86   0.919
  sub14                     36.64       0.00       0.00       1.25      32.08       2.05      34.14        0.32   201.64   0.932
  sub15                     36.64       0.00       0.00       4.75      24.68       6.24      30.92        0.53   284.43   0.844
  sub16                     36.64       0.00       0.00       4.95      23.64       7.14      30.78        0.32   194.52   0.840
  sub17                     36.64       0.00       0.00       4.82      23.99       6.90      30.89        0.27   158.24   0.843
  sub2                      36.64       0.00       0.00       6.67      22.18       6.89      29.07        0.27   119.85   0.793
  sub22                     36.64       0.00       0.00       7.16      20.10       8.60      28.70        1.81   923.94   0.783
  sub23                     36.64       0.00       0.00       5.87      22.22       7.69      29.91        1.43   781.42   0.816
  sub3                      36.64       0.00       0.00       7.16      22.14       6.40      28.54        0.64   251.94   0.779
  sub4                      36.64       0.00       0.00       1.71      31.21       2.32      33.53        0.70   281.52   0.915
  sub5                      36.64       0.00       0.00       0.97      32.77       1.60      34.37        0.39   225.71   0.938
  sub60                     36.64       0.00       0.00       1.67      31.04       2.73      33.77        0.44   288.36   0.922
  sub61                     36.64       0.00       0.00       2.41      29.28       3.82      33.10        0.61   393.32   0.903
  sub62                     36.64       0.00       0.00       1.11      32.42       1.82      34.24        0.94   546.16   0.935
  sub63                     36.64       0.00       0.00       4.39      25.04       6.24      31.28        0.71   417.10   0.854
  sub64                     36.64       0.00       0.00       2.22      29.94       3.27      33.21        0.80   423.34   0.906
  sub65                     36.64       0.00       0.00       1.93      30.62       2.84      33.46        0.92   468.46   0.913
  sub66                     36.64       0.00       0.00       5.29      24.94       5.33      30.27        1.41   567.62   0.826
  sub67                     36.64       0.00       0.00       1.08      32.46       1.85      34.31        0.64   457.59   0.936
  sub68                     36.64       0.00       0.00       1.99      30.32       3.14      33.46        0.92   560.16   0.913
  sub69                     36.64       0.00       0.00       1.70      31.03       3.79      34.83        1.29   645.15   0.951
  sub7                      36.64       0.00       0.00       1.23      32.10       2.07      34.16        0.12    76.74   0.932
  sub70                     36.64       0.00       0.00       5.53      24.02       6.93      30.96        0.89   327.53   0.845
  sub71                     36.64       0.00       0.00       1.14      32.38       1.80      34.18        0.89   461.26   0.933
  sub72                     36.64       0.00       0.00       1.01      32.68       1.56      34.24        0.47   214.82   0.934
  sub8                      36.64       0.00       0.00       1.24      32.09       2.06      34.15        0.22   138.23   0.932
  sub9                      36.64       0.00       0.00       1.24      32.09       2.05      34.14        0.16   102.87   0.932
  
  
  ******************
  Node Depth Summary
  ******************
  
  ---------------------------------------------------------------------------------
                                 Average  Maximum  Maximum  Time of Max    Reported
                                   Depth    Depth      HGL   Occurrence   Max Depth
  Node                 Type       Meters   Meters   Meters  days hr:min      Meters
  ---------------------------------------------------------------------------------
  HS02004478           JUNCTION     0.18     1.60    10.83     0  01:41        1.44
  HS02004479           JUNCTION     0.26     1.72    10.93     0  01:41        1.64
  HS02004480           JUNCTION     0.22     1.70    10.94     0  01:41        1.60
  HS02004770           JUNCTION     0.23     1.42    11.25     0  01:37        1.42
  HS02004777           JUNCTION     0.26     1.48    11.28     0  01:37        1.48
  HS02004785           JUNCTION     0.15     1.49    11.39     0  01:37        1.40
  HS02004788           JUNCTION     0.12     1.42    11.32     0  01:37        1.42
  HS02004792           JUNCTION     0.17     1.60    11.12     0  01:36        1.60
  HS02004799           JUNCTION     0.28     1.76    10.97     0  01:38        1.76
  HS02004802           JUNCTION     0.28     1.81    10.94     0  01:41        1.56
  HS02004807           JUNCTION     0.24     1.92    11.09     0  01:39        1.54
  HS02004817           JUNCTION     0.54     2.44    11.29     0  01:39        1.87
  HS02004824           JUNCTION     0.12     2.01    11.41     0  01:39        1.33
  HS02004830           JUNCTION     0.12     2.03    11.50     0  01:39        1.27
  HS02004837           JUNCTION     0.10     1.92    11.50     0  01:41        1.17
  HS02004842           JUNCTION     0.38     2.22    11.49     0  01:41        1.47
  HS02004848           JUNCTION     0.07     2.04    11.64     0  01:41        1.13
  HS02004852           JUNCTION     0.08     2.12    11.63     0  01:41        1.18
  HS02004856           JUNCTION     0.14     2.07    11.50     0  01:41        1.23
  HS02004862           JUNCTION     0.09     2.00    11.38     0  01:41        1.21
  HS02004870           JUNCTION     0.09     1.96    11.25     0  01:41        1.23
  HS02004876           JUNCTION     0.14     2.26    11.29     0  01:41        1.38
  HS02004881           JUNCTION     0.08     2.15    11.18     0  01:41        1.26
  HS02004901           JUNCTION     0.24     1.42    11.24     0  01:37        1.42
  WS02001211           JUNCTION     0.62     0.86     5.70     0  01:46        0.85
  WS02001212           JUNCTION     0.37     0.64     5.70     0  01:46        0.62
  WS02001213           JUNCTION     0.58     0.97     5.73     0  01:45        0.89
  WS02003059           JUNCTION     0.64     0.96     5.65     0  01:48        0.95
  WS02003060           JUNCTION     0.37     0.68     5.61     0  01:48        0.68
  WS02003066           JUNCTION     0.22     0.46     6.01     0  01:40        0.45
  WS02003067           JUNCTION     0.52     0.94     6.26     0  01:40        0.89
  WS02003069           JUNCTION     0.41     0.77     5.35     0  01:49        0.76
  WS02003072           JUNCTION     0.47     0.81     5.18     0  01:47        0.81
  WS02003073           JUNCTION     0.28     0.51     4.58     0  01:48        0.51
  WS02004138           JUNCTION     0.13     0.14     7.39     0  00:29        0.14
  WS02004139           JUNCTION     0.56     0.78     5.69     0  01:44        0.77
  WS02004401           JUNCTION     0.72     2.66     8.66     0  01:38        2.66
  WS02004402           JUNCTION     0.74     2.74     8.70     0  01:38        2.40
  WS02004403           JUNCTION     0.74     2.51     8.44     0  01:38        2.38
  WS02004404           JUNCTION     0.81     2.50     8.35     0  01:38        1.62
  WS02004405           JUNCTION     0.79     2.52     8.37     0  01:38        1.58
  WS02004406           JUNCTION     0.79     2.61     8.44     0  01:38        1.48
  WS02004407           JUNCTION     0.23     0.85     7.16     0  01:42        0.84
  WS02004409           JUNCTION     0.49     1.33     7.10     0  01:42        1.32
  WS02004410           JUNCTION     0.50     1.31     7.03     0  01:40        1.24
  WS02004411           JUNCTION     0.51     1.31     6.99     0  01:40        1.16
  WS02004412           JUNCTION     0.52     1.28     6.92     0  01:40        1.08
  WS02004413           JUNCTION     0.65     2.31     7.78     0  01:40        1.13
  WS02006109           JUNCTION     0.92     2.64     9.26     0  01:38        2.64
  WS02006110           JUNCTION     0.86     2.76     9.34     0  01:38        2.33
  WS02006111           JUNCTION     0.37     2.28     8.98     0  01:38        1.59
  WS02006112           JUNCTION     0.93     2.68     8.56     0  01:38        2.68
  WS02006113           JUNCTION     0.44     2.55     9.45     0  01:38        1.72
  WS02006115           JUNCTION     0.64     2.81     8.95     0  01:38        1.94
  WS02006116           JUNCTION     0.71     3.35     9.39     0  02:01        3.35
  WS02006228           JUNCTION     0.96     3.03     9.68     0  01:41        3.03
  WS02006229           JUNCTION     0.96     3.25     9.94     0  02:01        3.25
  WS02006230           JUNCTION     0.91     2.65     9.39     0  01:36        2.65
  WS02006231           JUNCTION     0.66     2.24     9.36     0  01:36        2.24
  WS02006232           JUNCTION     0.75     2.18     9.22     0  01:36        2.18
  WS02006234           JUNCTION     0.64     1.96     9.12     0  01:37        1.96
  WS02006235           JUNCTION     0.66     2.00     9.16     0  01:36        2.00
  WS02006238           JUNCTION     0.68     2.15     9.29     0  02:01        2.15
  WS02006239           JUNCTION     0.62     2.03     9.24     0  01:37        2.03
  WS02006240           JUNCTION     0.57     2.10     9.39     0  01:37        2.10
  WS02006242           JUNCTION     0.61     1.55     8.82     0  01:37        1.55
  WS02006243           JUNCTION     0.51     1.48     8.90     0  01:37        1.48
  WS02006245           JUNCTION     0.50     1.56     9.05     0  01:37        1.56
  WS02006247           JUNCTION     0.51     1.47     8.97     0  01:37        1.47
  WS02006248           JUNCTION     0.46     1.10     8.69     0  01:37        1.10
  WS02006249           JUNCTION     0.49     1.09     8.69     0  01:37        1.09
  WS02006251           JUNCTION     0.56     2.21     9.88     0  01:40        2.18
  WS02006252           JUNCTION     0.37     1.50     9.74     0  00:00        1.50
  WS02006253           JUNCTION     0.61     3.26    10.90     0  01:41        2.62
  WS02006256           JUNCTION     1.03     2.35     9.28     0  00:00        2.35
  WS02006280           JUNCTION     0.24     1.78    10.05     0  01:41        1.66
  WS02006284           JUNCTION     0.50     2.07    10.47     0  01:38        1.84
  WS02006287           JUNCTION     0.24     1.77    10.72     0  01:41        1.60
  WSF200               JUNCTION     0.21     0.56     5.79     0  01:40        0.51
  YS02001580           JUNCTION     0.06     1.05     9.59     0  01:38        0.77
  YS02001583           JUNCTION     0.09     1.14     9.64     0  01:38        0.82
  YS02001586           JUNCTION     0.15     1.13     9.30     0  01:38        1.13
  YS02001590           JUNCTION     0.24     1.40     9.26     0  01:37        1.40
  YS02001593           JUNCTION     0.18     1.46     9.32     0  01:37        1.28
  YS02001596           JUNCTION     0.24     1.80     9.22     0  01:36        1.65
  YS02001600           JUNCTION     0.31     1.87     9.00     0  01:36        1.85
  YS02001601           JUNCTION     0.50     2.06     8.90     0  01:36        2.06
  YS02001602           JUNCTION     0.42     1.87     8.77     0  01:39        1.87
  YS02001605           JUNCTION     0.38     1.78     8.68     0  01:39        1.77
  YS02001607           JUNCTION     0.37     1.68     8.53     0  01:39        1.64
  YS02001610           JUNCTION     0.42     1.68     8.48     0  01:39        1.68
  YS02001613           JUNCTION     0.38     1.70     8.54     0  01:39        1.64
  YS02001616           JUNCTION     0.31     1.61     8.52     0  01:39        1.57
  YS02001619           JUNCTION     0.29     1.61     8.54     0  01:39        1.56
  YS02001622           JUNCTION     0.27     1.59     8.49     0  01:39        1.54
  YS02001625           JUNCTION     0.53     1.78     8.38     0  01:39        1.78
  YS02001629           JUNCTION     0.39     1.85     8.40     0  01:39        1.81
  YS02001633           JUNCTION     0.46     1.89     8.34     0  01:41        1.87
  YS02001641           JUNCTION     0.44     1.69     8.12     0  01:44        1.68
  YS02001644           JUNCTION     0.43     1.64     8.07     0  01:44        1.64
  YS02001647           JUNCTION     0.22     1.32     7.93     0  01:44        1.31
  YS02001649           JUNCTION     0.25     1.41     7.80     0  01:44        1.38
  YS02001652           JUNCTION     0.14     1.21     7.80     0  01:44        1.20
  YS02001655           JUNCTION     0.10     0.96     7.81     0  01:44        0.95
  YS02001658           JUNCTION     0.07     0.65     7.80     0  01:43        0.62
  YS02001661           JUNCTION     0.12     0.34     7.75     0  01:40        0.34
  YS02001664           JUNCTION     0.05     0.24     8.17     0  01:40        0.24
  YS02001745           JUNCTION     0.04     0.23     7.74     0  01:39        0.22
  YS02001748           JUNCTION     0.06     0.52     7.60     0  01:45        0.52
  YS02001751           JUNCTION     0.08     0.73     7.61     0  01:44        0.70
  YS02001754           JUNCTION     0.12     1.04     7.65     0  01:43        1.01
  YS02001757           JUNCTION     0.25     1.36     7.62     0  01:44        1.34
  YS02001759           JUNCTION     0.20     1.40     7.76     0  01:42        1.27
  YS02001762           JUNCTION     0.19     1.49     7.89     0  01:42        1.25
  YS02001765           JUNCTION     0.18     1.52     7.97     0  01:42        1.21
  YS02001767           JUNCTION     0.18     1.56     8.05     0  01:42        1.19
  YS02001770           JUNCTION     0.19     1.63     8.12     0  01:42        1.21
  YS02001774           JUNCTION     0.25     1.72     8.14     0  01:42        1.32
  YS02001779           JUNCTION     0.09     1.48     8.16     0  01:42        1.16
  YS02001783           JUNCTION     0.21     1.23     7.37     0  01:41        1.21
  YS02001784           JUNCTION     0.23     1.11     7.18     0  01:41        1.10
  YS02001786           JUNCTION     0.20     0.89     6.92     0  01:41        0.86
  YS02001788           JUNCTION     0.14     0.62     6.59     0  01:42        0.62
  YS02001790           JUNCTION     0.17     0.72     6.36     0  01:43        0.72
  YS02001791           JUNCTION     0.11     0.43     5.90     0  01:46        0.43
  YS02001793           JUNCTION     0.06     0.27     5.10     0  01:50        0.26
  YS02001882           JUNCTION     0.26     1.63     8.35     0  01:41        1.60
  YS02001884           JUNCTION     0.35     1.73     8.34     0  01:41        1.70
  YS02001887           JUNCTION     0.43     1.80     8.34     0  01:41        1.77
  YS02001890           JUNCTION     0.45     1.81     8.32     0  01:41        1.80
  YS02001895           JUNCTION     0.24     1.57     8.31     0  01:41        1.55
  YS02001898           JUNCTION     0.24     1.56     8.30     0  01:41        1.55
  YS02001901           JUNCTION     0.35     1.67     8.28     0  01:41        1.67
  YS02001904           JUNCTION     0.33     1.64     8.27     0  01:41        1.63
  YS02001907           JUNCTION     0.64     1.96     8.25     0  01:41        1.96
  YS02001910           JUNCTION     0.44     1.97     8.47     0  01:41        1.92
  YS02001915           JUNCTION     0.26     1.91     8.63     0  01:41        1.87
  YS02001918           JUNCTION     0.12     1.81     8.88     0  01:41        1.81
  YS02001920           JUNCTION     0.21     2.08     9.09     0  01:41        1.77
  YS02001923           JUNCTION     0.09     1.99     9.25     0  01:41        1.47
  YS02001926           JUNCTION     0.13     1.90     9.34     0  01:41        1.28
  YS02001929           JUNCTION     0.07     1.78     9.47     0  01:41        1.14
  YS02006553           JUNCTION     0.64     1.96     8.25     0  01:41        1.95
  YS02006556           JUNCTION     0.62     1.93     8.24     0  01:41        1.91
  YS02006558           JUNCTION     0.66     1.96     8.23     0  01:41        1.94
  YS02006561           JUNCTION     0.13     0.89     7.55     0  01:41        0.86
  YS02163301           JUNCTION     0.41     2.03     8.55     0  02:01        2.03
  YS02163601           JUNCTION     0.50     1.84     8.24     0  01:44        1.82
  YS02164001           JUNCTION     0.43     1.72     8.17     0  01:44        1.72
  YSB1154              JUNCTION     0.39     1.93    10.99     0  01:38        1.81
  YSB1171              JUNCTION     0.53     1.95    10.85     0  01:38        1.95
  YSB1174              JUNCTION     0.34     1.82    10.93     0  01:38        1.74
  YSB6556              JUNCTION     0.29     1.78    10.95     0  01:38        1.69
  CC-1                 OUTFALL      0.00     0.00     0.00     0  00:00        0.00
  CC-2                 OUTFALL      0.00     0.00     0.00     0  00:00        0.00
  JK-1                 OUTFALL      0.00     0.00     0.00     0  00:00        0.00
  JK-2                 OUTFALL      0.00     0.00     0.00     0  00:00        0.00
  WSC                  OUTFALL      0.28     0.51     1.18     0  01:49        0.51
  CC-storage           STORAGE      0.70     1.33     6.83     0  02:03        1.33
  JK-storage           STORAGE      1.33     4.23     5.03     0  01:50        4.11
  XR-storage           STORAGE      7.82     9.26     7.26     0  08:00        9.26
  
  
  *******************
  Node Inflow Summary
  *******************
  
  -------------------------------------------------------------------------------------------------
                                  Maximum  Maximum                  Lateral       Total        Flow
                                  Lateral    Total  Time of Max      Inflow      Inflow     Balance
                                   Inflow   Inflow   Occurrence      Volume      Volume       Error
  Node                 Type           LPS      LPS  days hr:min    10^6 ltr    10^6 ltr     Percent
  -------------------------------------------------------------------------------------------------
  HS02004478           JUNCTION      0.00  2563.30     0  01:38           0        6.06      -0.015
  HS02004479           JUNCTION      0.00   451.03     0  01:39           0        0.69       0.151
  HS02004480           JUNCTION      0.00  2343.22     0  01:38           0        4.77       0.060
  HS02004770           JUNCTION    781.42   897.52     0  01:37        1.43        1.64       0.205
  HS02004777           JUNCTION      0.03   891.31     0  01:37    0.000864        1.46       0.363
  HS02004785           JUNCTION      0.15   891.73     0  01:37     0.00432        1.46       0.025
  HS02004788           JUNCTION    286.10  1142.55     0  01:37        0.58        2.04       0.007
  HS02004792           JUNCTION    924.22  1750.18     0  01:38        1.82        3.85       0.003
  HS02004799           JUNCTION    201.64  1937.75     0  01:38       0.325        4.09       0.064
  HS02004802           JUNCTION      0.00   365.57     0  01:42           0        1.32       0.302
  HS02004807           JUNCTION    257.17   551.50     0  01:38       0.398        1.38       0.305
  HS02004817           JUNCTION      0.60   548.44     0  01:38      0.0173        1.04       1.610
  HS02004824           JUNCTION    281.57   766.66     0  01:38       0.701        1.22       0.036
  HS02004830           JUNCTION      0.15   761.61     0  01:39     0.00432       0.716       0.142
  HS02004837           JUNCTION    231.08  1029.50     0  01:39       0.561       0.957       0.048
  HS02004842           JUNCTION      0.00   988.90     0  01:39           0       0.641       2.091
  HS02004848           JUNCTION    251.94  1209.38     0  01:39       0.642        1.14      -0.003
  HS02004852           JUNCTION      0.00  1119.72     0  01:39           0        1.01       0.006
  HS02004856           JUNCTION    102.87  1136.52     0  01:40       0.164        1.17       0.065
  HS02004862           JUNCTION    120.05  1232.59     0  01:40       0.277        1.45      -0.039
  HS02004870           JUNCTION    138.23  1373.17     0  01:40       0.218        1.66       0.015
  HS02004876           JUNCTION    128.91  1442.98     0  01:40       0.225        1.89       0.021
  HS02004881           JUNCTION     76.74  1441.10     0  01:40       0.115           2       0.035
  HS02004901           JUNCTION    194.52   401.43     0  01:45       0.322       0.409       0.434
  WS02001211           JUNCTION      7.35   376.06     0  01:44       0.212        5.45       0.608
  WS02001212           JUNCTION      0.00   482.17     0  01:42           0        5.43       0.289
  WS02001213           JUNCTION      0.00   432.72     0  01:42           0        5.42       0.320
  WS02003059           JUNCTION      0.00   499.83     0  01:41           0        5.43       0.589
  WS02003060           JUNCTION     16.53  1518.58     0  01:48       0.476        12.8       0.116
  WS02003066           JUNCTION      0.00  1261.65     0  01:42           0        6.98       0.023
  WS02003067           JUNCTION      0.00  1248.15     0  01:43           0        6.99       0.065
  WS02003069           JUNCTION      0.32  1477.66     0  01:49     0.00922        12.8       0.124
  WS02003072           JUNCTION      0.00  1469.83     0  01:47           0        12.8       0.166
  WS02003073           JUNCTION      1.82  1475.80     0  01:48      0.0524        12.8       0.171
  WS02004138           JUNCTION      0.00   380.00     0  00:00           0        5.25       0.052
  WS02004139           JUNCTION      0.32   323.75     0  01:43     0.00924        5.26       0.508
  WS02004401           JUNCTION      0.00  1295.52     0  01:40           0         7.1       0.155
  WS02004402           JUNCTION      0.00  1296.18     0  01:40           0        7.08       0.153
  WS02004403           JUNCTION      0.00  1296.34     0  01:40           0        7.07       0.152
  WS02004404           JUNCTION      0.16  1296.71     0  01:40     0.00467        7.07       0.128
  WS02004405           JUNCTION      0.04  1316.72     0  01:38      0.0011        7.06       0.176
  WS02004406           JUNCTION      0.00  1347.54     0  01:38           0        7.05       0.310
  WS02004407           JUNCTION      0.00  1356.74     0  01:38           0        7.02       0.026
  WS02004409           JUNCTION      0.00  1376.23     0  01:39           0        7.02       0.049
  WS02004410           JUNCTION      0.00  1363.11     0  01:39           0        7.02       0.070
  WS02004411           JUNCTION      0.00  1327.55     0  01:39           0        7.01       0.087
  WS02004412           JUNCTION      0.00  1248.51     0  01:43           0        7.01       0.118
  WS02004413           JUNCTION      0.00  1248.24     0  01:43           0           7       0.202
  WS02006109           JUNCTION      1.23  1319.44     0  01:38      0.0354        6.93       0.148
  WS02006110           JUNCTION      0.00  1314.90     0  01:38           0        6.87       0.113
  WS02006111           JUNCTION      0.00  1297.18     0  01:38           0        6.86       0.001
  WS02006112           JUNCTION    158.24  1389.98     0  01:38       0.265        7.12       0.260
  WS02006113           JUNCTION      0.00  1307.52     0  01:38           0        6.86       0.037
  WS02006115           JUNCTION      0.00  1378.50     0  01:38           0         7.1       0.103
  WS02006116           JUNCTION      0.00  1295.72     0  01:40           0        7.09      -0.002
  WS02006228           JUNCTION      0.00  1320.52     0  01:38           0         6.9       0.070
  WS02006229           JUNCTION      0.00  2175.66     0  01:42           0        8.26       0.093
  WS02006230           JUNCTION     10.28   963.06     0  01:42       0.296        3.61       0.274
  WS02006231           JUNCTION      0.00   534.83     0  03:20           0        2.85      -0.161
  WS02006232           JUNCTION      0.00   536.72     0  03:20           0        2.83       0.194
  WS02006234           JUNCTION      0.00   535.49     0  03:20           0        2.79      -0.484
  WS02006235           JUNCTION      0.00   527.57     0  03:20           0        2.92       0.444
  WS02006238           JUNCTION      0.00   476.36     0  01:37           0        2.58      -0.070
  WS02006239           JUNCTION      0.00   520.28     0  01:37           0        2.48      -0.135
  WS02006240           JUNCTION      0.00   739.60     0  01:37           0        2.43      -0.033
  WS02006242           JUNCTION      0.00   836.13     0  01:37           0        2.42      -0.039
  WS02006243           JUNCTION      0.00   495.44     0  01:37           0        2.14      -0.245
  WS02006245           JUNCTION      0.00   528.72     0  01:37           0        2.16       0.630
  WS02006247           JUNCTION      0.00   534.15     0  01:37           0        2.16      -0.000
  WS02006248           JUNCTION      0.00   561.03     0  01:37           0        2.34      -0.136
  WS02006249           JUNCTION      0.00  1327.06     0  01:41           0        4.59       0.227
  WS02006251           JUNCTION      0.08  1359.56     0  01:41     0.00222        4.65       0.000
  WS02006252           JUNCTION      0.00   400.00     0  00:00           0        2.61      -0.577
  WS02006253           JUNCTION     21.66  1355.61     0  01:41      0.0279        2.09       0.064
  WS02006256           JUNCTION      0.00   300.00     0  00:00           0        1.03      -3.651
  WS02006280           JUNCTION      0.00  2175.15     0  01:42           0        6.03      -0.032
  WS02006284           JUNCTION      0.10  2175.40     0  01:42     0.00275        6.03       0.032
  WS02006287           JUNCTION      0.00  2305.54     0  01:38           0        6.03       0.060
  WSF200               JUNCTION      0.00  1259.76     0  01:41           0        6.98       0.012
  YS02001580           JUNCTION      0.00   194.77     0  01:38           0     0.00457      -1.298
  YS02001583           JUNCTION      0.00   234.05     0  01:38           0       0.014     -15.047
  YS02001586           JUNCTION    327.53   327.53     0  01:44       0.894       0.906       0.193
  YS02001590           JUNCTION      0.00   317.91     0  01:45           0       0.889      -0.047
  YS02001593           JUNCTION      0.00   318.11     0  01:45           0       0.889       0.018
  YS02001596           JUNCTION      0.00   317.90     0  01:43           0       0.889      -0.005
  YS02001600           JUNCTION      0.00   318.09     0  01:45           0        0.89       0.002
  YS02001601           JUNCTION    645.15   962.08     0  01:42        1.29        2.18       0.037
  YS02001602           JUNCTION      0.00   596.87     0  01:38           0        1.73       0.022
  YS02001605           JUNCTION      0.00   596.95     0  01:38           0        1.69       0.027
  YS02001607           JUNCTION      0.00   597.00     0  01:38           0        1.69       0.097
  YS02001610           JUNCTION      0.00   572.18     0  01:38           0        1.69       0.130
  YS02001613           JUNCTION      0.00   542.13     0  01:38           0        1.65       0.106
  YS02001616           JUNCTION      0.00   503.29     0  01:38           0        1.65       0.027
  YS02001619           JUNCTION    567.62   908.99     0  01:40        1.41        3.06       0.010
  YS02001622           JUNCTION      0.00   907.52     0  01:40           0        3.06       0.007
  YS02001625           JUNCTION      0.00   906.66     0  01:40           0        3.06       0.294
  YS02001629           JUNCTION      0.00   906.23     0  01:40           0        3.02       0.018
  YS02001633           JUNCTION    468.66  1369.23     0  01:40       0.927        3.95       0.084
  YS02001641           JUNCTION      0.00  1366.57     0  01:41           0        3.95       0.075
  YS02001644           JUNCTION    423.38  1789.75     0  01:41       0.799        4.75       0.072
  YS02001647           JUNCTION      0.00  1788.64     0  01:41           0        4.73       0.005
  YS02001649           JUNCTION      0.00  2182.14     0  01:41           0        5.45       0.007
  YS02001652           JUNCTION      0.00   464.78     0  01:41           0       0.712      -0.439
  YS02001655           JUNCTION      0.15   466.10     0  01:44     0.00443       0.714       0.273
  YS02001658           JUNCTION      0.00   416.10     0  01:40           0        0.71       0.007
  YS02001661           JUNCTION      0.00   416.90     0  01:40           0        0.71       0.039
  YS02001664           JUNCTION    417.10   417.10     0  01:40        0.71        0.71      -0.007
  YS02001745           JUNCTION    288.36   288.36     0  01:40       0.444       0.444       0.227
  YS02001748           JUNCTION      0.04   288.17     0  01:40      0.0013       0.444      -0.200
  YS02001751           JUNCTION      0.01   325.34     0  01:43    0.000317       0.446       0.385
  YS02001754           JUNCTION      0.26   365.25     0  01:45     0.00749       0.452      -0.558
  YS02001757           JUNCTION      0.00  2951.86     0  01:44           0        7.47       0.094
  YS02001759           JUNCTION    393.36   983.95     0  01:42       0.609        1.57      -0.014
  YS02001762           JUNCTION      0.00   621.17     0  01:42           0       0.958       0.017
  YS02001765           JUNCTION      0.00   615.58     0  01:42           0       0.958       0.006
  YS02001767           JUNCTION      0.54   620.41     0  01:42      0.0154       0.958      -0.008
  YS02001770           JUNCTION    546.31   618.97     0  01:42       0.943       0.991      -0.014
  YS02001774           JUNCTION      0.00   198.42     0  01:42           0      0.0782       1.522
  YS02001779           JUNCTION      0.01   203.47     0  01:42    0.000144      0.0286      -1.491
  YS02001783           JUNCTION      0.00  1145.33     0  01:42           0        2.86       0.008
  YS02001784           JUNCTION      1.06  1146.67     0  01:42      0.0305        2.89       0.017
  YS02001786           JUNCTION      0.06  1146.86     0  01:42     0.00162        2.89       0.021
  YS02001788           JUNCTION      0.07  1147.61     0  01:42     0.00204        2.89       0.011
  YS02001790           JUNCTION      0.15  1153.34     0  01:44     0.00446        2.89       0.016
  YS02001791           JUNCTION      0.00  1275.63     0  01:43           0        2.89      -0.009
  YS02001793           JUNCTION      0.00  1217.56     0  01:47           0        2.89       0.009
  YS02001882           JUNCTION      0.00    66.62     0  01:39           0      0.0136       4.418
  YS02001884           JUNCTION      0.00   106.45     0  01:38           0      0.0492       5.294
  YS02001887           JUNCTION    458.04   466.45     0  01:40       0.651       0.684       0.662
  YS02001890           JUNCTION      0.00   475.67     0  01:40           0       0.644       0.805
  YS02001895           JUNCTION      0.00   484.13     0  01:40           0       0.639       0.266
  YS02001898           JUNCTION      0.00   494.34     0  01:40           0       0.637       0.032
  YS02001901           JUNCTION      0.00   515.39     0  01:40           0       0.641       0.514
  YS02001904           JUNCTION      0.00   519.17     0  01:40           0       0.656       0.444
  YS02001907           JUNCTION      0.00  1272.29     0  01:42           0         2.1       0.856
  YS02001910           JUNCTION      0.00   891.03     0  01:42           0        1.45       0.496
  YS02001915           JUNCTION    461.28   890.40     0  01:42       0.895         1.5       0.108
  YS02001918           JUNCTION      0.00   461.68     0  01:40           0        0.63       0.031
  YS02001920           JUNCTION      2.87   431.02     0  01:42      0.0827       0.605       0.200
  YS02001923           JUNCTION      0.04   498.28     0  01:41     0.00109       0.505      -0.227
  YS02001926           JUNCTION      0.05   650.25     0  01:41      0.0015       0.486      -0.245
  YS02001929           JUNCTION    214.82   412.78     0  01:41       0.471       0.474      -0.120
  YS02006553           JUNCTION      0.00   784.04     0  01:50           0        1.97       0.598
  YS02006556           JUNCTION      0.00   783.66     0  01:50           0        1.98       0.417
  YS02006558           JUNCTION    561.04  1147.71     0  01:41       0.946         2.9       0.128
  YS02006561           JUNCTION      0.00  1148.80     0  01:41           0        2.86      -0.003
  YS02163301           JUNCTION      0.00   904.83     0  01:40           0        3.03       0.041
  YS02163601           JUNCTION      0.11  1368.57     0  01:41     0.00317        3.95       0.126
  YS02164001           JUNCTION      0.00  1367.93     0  01:41           0        3.95       0.063
  YSB1154              JUNCTION    225.71   225.71     0  01:41       0.389        0.39       0.387
  YSB1171              JUNCTION      0.00   443.45     0  01:39           0       0.691       0.920
  YSB1174              JUNCTION    211.86   211.86     0  01:39       0.294       0.295       0.432
  YSB6556              JUNCTION      0.00   226.04     0  01:41           0       0.391       0.342
  CC-1                 OUTFALL       0.00   683.00     0  00:00           0        2.86       0.000
  CC-2                 OUTFALL       0.00   683.00     0  00:00           0        2.87       0.000
  JK-1                 OUTFALL       0.00  1000.00     0  00:00           0        1.12       0.000
  JK-2                 OUTFALL       0.00  1000.00     0  00:00           0       0.879       0.000
  WSC                  OUTFALL       0.00  1473.30     0  01:49           0        12.8       0.000
  CC-storage           STORAGE       0.00  2955.17     0  01:44           0        9.69      -0.317
  JK-storage           STORAGE       0.00  1219.17     0  01:47           0        3.04      -0.549
  XR-storage           STORAGE     200.00   200.00     0  00:00        5.76        6.36       0.001
  
  
  **********************
  Node Surcharge Summary
  **********************
  
  Surcharging occurs when water rises above the top of the highest conduit.
  ---------------------------------------------------------------------
                                               Max. Height   Min. Depth
                                   Hours       Above Crown    Below Rim
  Node                 Type      Surcharged         Meters       Meters
  ---------------------------------------------------------------------
  HS02004478           JUNCTION        0.26          0.681        0.259
  HS02004479           JUNCTION        0.37          0.922        0.128
  HS02004480           JUNCTION        0.40          0.993        0.107
  HS02004770           JUNCTION        0.33          0.720        0.000
  HS02004777           JUNCTION        0.34          0.780        0.000
  HS02004785           JUNCTION        0.28          0.790        0.000
  HS02004788           JUNCTION        0.27          0.720        0.000
  HS02004792           JUNCTION        0.38          0.900        0.000
  HS02004799           JUNCTION        0.46          1.060        0.000
  HS02004802           JUNCTION        0.40          1.100        0.110
  HS02004807           JUNCTION        0.39          1.220        0.000
  HS02004817           JUNCTION        0.82          1.740        0.000
  HS02004824           JUNCTION        0.27          1.310        0.000
  HS02004830           JUNCTION        0.25          1.330        0.000
  HS02004837           JUNCTION        0.20          1.217        0.123
  HS02004842           JUNCTION        0.33          1.520        0.000
  HS02004848           JUNCTION        0.17          1.342        0.028
  HS02004852           JUNCTION        0.20          1.420        0.000
  HS02004856           JUNCTION        0.18          1.300        0.000
  HS02004862           JUNCTION        0.21          1.300        0.000
  HS02004870           JUNCTION        0.23          1.262        0.138
  HS02004876           JUNCTION        0.31          1.560        0.000
  HS02004881           JUNCTION        0.29          1.450        0.000
  HS02004901           JUNCTION        0.34          0.720        0.000
  WS02004401           JUNCTION        1.36          1.660        0.000
  WS02004402           JUNCTION        1.37          1.740        0.000
  WS02004403           JUNCTION        1.38          1.510        0.520
  WS02004404           JUNCTION        1.60          1.501        1.279
  WS02004405           JUNCTION        1.59          1.520        1.280
  WS02004406           JUNCTION        1.54          1.612        0.838
  WS02004409           JUNCTION        0.61          0.332        2.028
  WS02004410           JUNCTION        0.56          0.312        2.228
  WS02004411           JUNCTION        0.51          0.313        2.217
  WS02004412           JUNCTION        0.43          0.284        2.026
  WS02004413           JUNCTION        0.94          1.306        0.894
  WS02006109           JUNCTION        1.86          1.820        0.000
  WS02006110           JUNCTION        1.62          1.850        0.000
  WS02006111           JUNCTION        0.78          1.467        0.403
  WS02006112           JUNCTION        1.80          1.680        0.000
  WS02006113           JUNCTION        0.86          1.754        0.176
  WS02006115           JUNCTION        1.14          1.798        0.452
  WS02006116           JUNCTION        1.19          2.290        0.000
  WS02006228           JUNCTION        1.86          2.200        0.000
  WS02006229           JUNCTION        0.56          1.070        0.000
  WS02006230           JUNCTION        1.59          1.570        0.000
  WS02006231           JUNCTION        1.60          1.530        0.000
  WS02006232           JUNCTION        1.79          1.480        0.000
  WS02006234           JUNCTION        1.61          1.240        0.000
  WS02006235           JUNCTION        1.67          1.290        0.000
  WS02006238           JUNCTION        1.72          1.430        0.000
  WS02006239           JUNCTION        1.65          1.290        0.000
  WS02006240           JUNCTION        1.65          1.390        0.000
  WS02006242           JUNCTION        1.72          0.820        0.000
  WS02006243           JUNCTION        1.65          0.770        0.000
  WS02006245           JUNCTION        1.64          0.850        0.000
  WS02006247           JUNCTION        1.66          0.760        0.000
  WS02006248           JUNCTION        1.61          0.380        0.000
  WS02006249           JUNCTION        1.65          0.390        0.000
  WS02006251           JUNCTION        1.45          1.180        0.000
  WS02006252           JUNCTION        1.76          1.100        0.000
  WS02006253           JUNCTION        1.45          2.220        0.260
  WS02006256           JUNCTION        7.32          2.050        0.000
  WS02006280           JUNCTION        0.46          0.726        0.054
  WS02006284           JUNCTION        0.40          0.795        0.005
  WS02006287           JUNCTION        0.33          0.768        0.122
  YS02001580           JUNCTION        0.28          0.450        0.000
  YS02001583           JUNCTION        0.29          0.500        0.000
  YS02001586           JUNCTION        0.44          0.510        0.000
  YS02001590           JUNCTION        0.50          0.750        0.000
  YS02001593           JUNCTION        0.50          0.840        0.000
  YS02001596           JUNCTION        0.58          1.070        0.000
  YS02001600           JUNCTION        0.69          1.190        0.000
  YS02001601           JUNCTION        1.02          1.440        0.000
  YS02001602           JUNCTION        0.90          1.270        0.000
  YS02001605           JUNCTION        0.86          1.180        0.000
  YS02001607           JUNCTION        0.45          0.680        0.000
  YS02001610           JUNCTION        0.47          0.680        0.000
  YS02001613           JUNCTION        0.44          0.700        0.000
  YS02001616           JUNCTION        0.40          0.610        0.000
  YS02001619           JUNCTION        0.39          0.610        0.000
  YS02001622           JUNCTION        0.38          0.587        0.033
  YS02001625           JUNCTION        0.54          0.780        0.000
  YS02001629           JUNCTION        0.32          0.470        0.000
  YS02001633           JUNCTION        0.55          0.868        0.192
  YS02001641           JUNCTION        0.48          0.687        0.413
  YS02001644           JUNCTION        0.45          0.637        0.283
  YS02001647           JUNCTION        0.22          0.320        0.580
  YS02001649           JUNCTION        0.34          0.410        0.640
  YS02001652           JUNCTION        0.09          0.178        0.952
  YS02001757           JUNCTION        0.37          0.359        0.851
  YS02001759           JUNCTION        0.24          0.397        0.813
  YS02001762           JUNCTION        0.20          0.490        0.660
  YS02001765           JUNCTION        0.13          0.522        0.578
  YS02001767           JUNCTION        0.11          0.556        0.474
  YS02001770           JUNCTION        0.09          0.599        0.321
  YS02001774           JUNCTION        0.19          0.715        0.335
  YS02001779           JUNCTION        0.01          0.477        0.203
  YS02001783           JUNCTION        0.33          0.428        1.172
  YS02001784           JUNCTION        0.31          0.311        1.179
  YS02001786           JUNCTION        0.20          0.086        1.344
  YS02001882           JUNCTION        0.28          0.630        0.200
  YS02001884           JUNCTION        0.29          0.666        0.204
  YS02001887           JUNCTION        0.32          0.748        0.202
  YS02001890           JUNCTION        0.33          0.760        0.000
  YS02001895           JUNCTION        0.27          0.566        0.184
  YS02001898           JUNCTION        0.26          0.531        0.209
  YS02001901           JUNCTION        0.31          0.673        0.197
  YS02001904           JUNCTION        0.30          0.639        0.211
  YS02001907           JUNCTION        0.49          0.950        0.000
  YS02001910           JUNCTION        0.36          0.967        0.133
  YS02001915           JUNCTION        0.28          0.915        0.085
  YS02001918           JUNCTION        0.19          0.810        0.000
  YS02001920           JUNCTION        0.21          1.085        0.055
  YS02001923           JUNCTION        0.01          0.779        0.041
  YS02001926           JUNCTION        0.01          0.897        0.003
  YS02001929           JUNCTION        0.01          0.780        0.000
  YS02006553           JUNCTION        0.49          0.962        0.228
  YS02006556           JUNCTION        0.42          0.886        0.464
  YS02006558           JUNCTION        0.41          0.862        0.538
  YS02006561           JUNCTION        0.15          0.094        1.056
  YS02163301           JUNCTION        0.54          1.030        0.000
  YS02163601           JUNCTION        0.57          0.841        0.239
  YS02164001           JUNCTION        0.49          0.717        0.383
  YSB1154              JUNCTION        0.54          1.234        0.166
  YSB1171              JUNCTION        0.54          1.100        0.000
  YSB1174              JUNCTION        0.48          1.122        0.128
  YSB6556              JUNCTION        0.44          1.082        0.018
  
  
  *********************
  Node Flooding Summary
  *********************
  
  Flooding refers to all water that overflows a node, whether it ponds or not.
  --------------------------------------------------------------------------
                                                             Total   Maximum
                                 Maximum   Time of Max       Flood    Ponded
                        Hours       Rate    Occurrence      Volume     Depth
  Node                 Flooded       LPS   days hr:min    10^6 ltr    Meters
  --------------------------------------------------------------------------
  HS02004770              0.13    368.25      0  01:39       0.094     0.000
  HS02004777              0.01     57.97      0  01:38       0.001     0.000
  HS02004785              0.01    325.16      0  01:37       0.001     0.000
  HS02004788              0.01    519.45      0  01:37       0.004     0.000
  HS02004792              0.14    332.54      0  01:42       0.086     0.000
  HS02004799              0.01     66.59      0  01:41       0.001     0.000
  HS02004807              0.01     34.19      0  01:39       0.000     0.000
  HS02004817              0.01     22.78      0  01:39       0.000     0.000
  HS02004824              0.01     28.92      0  01:39       0.000     0.000
  HS02004830              0.01     30.79      0  01:39       0.000     0.000
  HS02004842              0.01     66.98      0  01:41       0.000     0.000
  HS02004852              0.01    180.74      0  01:41       0.000     0.000
  HS02004856              0.01    296.98      0  01:41       0.001     0.000
  HS02004862              0.01    284.81      0  01:41       0.001     0.000
  HS02004876              0.01     88.84      0  01:41       0.000     0.000
  HS02004881              0.01     27.64      0  01:41       0.000     0.000
  HS02004901              0.21    401.42      0  01:45       0.191     0.000
  WS02004401              0.01     17.39      0  01:38       0.000     0.000
  WS02004402              0.01    271.53      0  01:38       0.000     0.000
  WS02006109              0.20    218.09      0  01:38       0.049     0.000
  WS02006110              0.01      7.20      0  01:38       0.000     0.000
  WS02006112              0.01    100.96      0  01:38       0.001     0.000
  WS02006116              0.01      0.25      0  02:01       0.000     0.000
  WS02006228              0.01      5.03      0  01:41       0.000     0.000
  WS02006229              0.01      0.85      0  02:01       0.000     0.000
  WS02006230              0.41    510.39      0  01:42       0.465     0.000
  WS02006231              0.01     77.45      0  01:36       0.000     0.000
  WS02006232              0.11     75.03      0  01:36       0.000     0.000
  WS02006234              0.47    130.18      0  02:01       0.146     0.000
  WS02006235              0.01    161.65      0  01:36       0.001     0.000
  WS02006238              0.01      3.83      0  02:53       0.000     0.000
  WS02006239              0.01    326.92      0  01:37       0.001     0.000
  WS02006240              0.01    716.35      0  01:37       0.001     0.000
  WS02006242              0.56    818.50      0  01:37       0.274     0.000
  WS02006243              0.01    436.80      0  01:37       0.006     0.000
  WS02006245              0.01    255.64      0  01:37       0.001     0.000
  WS02006247              0.01     68.25      0  01:37       0.000     0.000
  WS02006248              0.77    369.92      0  01:41       0.791     0.000
  WS02006249              1.45   1235.74      0  01:44       2.841     0.000
  WS02006251              0.01     66.35      0  01:40       0.000     0.000
  WS02006252              0.22    245.63      0  00:00       0.065     0.000
  WS02006256              0.94    293.19      0  00:00       0.521     0.000
  YS02001580              0.01    118.56      0  01:38       0.001     0.000
  YS02001583              0.01    130.61      0  01:38       0.000     0.000
  YS02001586              0.11    140.31      0  01:38       0.005     0.000
  YS02001590              0.01    162.84      0  01:37       0.000     0.000
  YS02001593              0.01     80.81      0  01:37       0.000     0.000
  YS02001596              0.01    105.31      0  01:36       0.000     0.000
  YS02001600              0.01      8.12      0  01:37       0.000     0.000
  YS02001601              0.38    564.27      0  01:42       0.445     0.000
  YS02001602              0.22     61.91      0  01:46       0.039     0.000
  YS02001605              0.01     22.30      0  01:39       0.000     0.000
  YS02001607              0.01    124.39      0  01:39       0.000     0.000
  YS02001610              0.15    160.30      0  01:39       0.042     0.000
  YS02001613              0.01     67.28      0  01:39       0.000     0.000
  YS02001616              0.01     44.17      0  01:39       0.000     0.000
  YS02001619              0.01     17.44      0  01:39       0.000     0.000
  YS02001625              0.11    127.41      0  01:44       0.023     0.000
  YS02001629              0.01    211.46      0  01:39       0.001     0.000
  YS02001890              0.01      4.56      0  01:41       0.000     0.000
  YS02001907              0.12    655.03      0  01:42       0.120     0.000
  YS02001918              0.01     99.41      0  01:41       0.001     0.000
  YS02001929              0.01    272.96      0  01:41       0.001     0.000
  YS02163301              0.01      0.48      0  02:01       0.000     0.000
  YSB1171                 0.02    126.51      0  01:38       0.002     0.000
  
  
  **********************
  Storage Volume Summary
  **********************
  
  --------------------------------------------------------------------------------------------------
                         Average     Avg  Evap Exfil       Maximum     Max    Time of Max    Maximum
                          Volume    Pcnt  Pcnt  Pcnt        Volume    Pcnt     Occurrence    Outflow
  Storage Unit           1000 m3    Full  Loss  Loss       1000 m3    Full    days hr:min        LPS
  --------------------------------------------------------------------------------------------------
  CC-storage               1.947      30     0     0         3.697      58       0  02:03    1783.53
  JK-storage               0.067      23     0     0         0.212      73       0  01:50    2300.00
  XR-storage               0.938      65     0     0         1.111      77       0  08:00     380.00
  
  
  ***********************
  Outfall Loading Summary
  ***********************
  
  -----------------------------------------------------------
                         Flow       Avg       Max       Total
                         Freq      Flow      Flow      Volume
  Outfall Node           Pcnt       LPS       LPS    10^6 ltr
  -----------------------------------------------------------
  CC-1                  25.65    683.00    683.00       2.857
  CC-2                  27.55    683.00    683.00       2.865
  JK-1                   6.21   1000.00   1000.00       1.116
  JK-2                   4.96   1000.00   1000.00       0.879
  WSC                   99.95    581.34   1473.30      12.786
  -----------------------------------------------------------
  System                32.86   3947.34   4760.09      20.503
  
  
  ********************
  Link Flow Summary
  ********************
  
  -----------------------------------------------------------------------------
                                 Maximum  Time of Max   Maximum    Max/    Max/
                                  |Flow|   Occurrence   |Veloc|    Full    Full
  Link                 Type          LPS  days hr:min     m/sec    Flow   Depth
  -----------------------------------------------------------------------------
  1                    CONDUIT   1473.30     0  01:49      3.68    0.51    0.51
  HS02004478WS02006287 CONDUIT   2305.54     0  01:38      2.94    0.65    1.00
  HS02004479HS02004480 CONDUIT    459.91     0  01:39      0.66    0.44    1.00
  HS02004480HS02004478 CONDUIT   2337.27     0  01:38      3.34    9.84    1.00
  HS02004770HS02004777 CONDUIT    891.28     0  01:37      1.27    1.63    1.00
  HS02004777HS02004785 CONDUIT    891.58     0  01:37      1.43    1.10    1.00
  HS02004785HS02004788 CONDUIT    892.88     0  01:37      1.34    6.73    1.00
  HS02004788HS02004792 CONDUIT    892.49     0  01:38      1.45    0.59    1.00
  HS02004792HS02004799 CONDUIT   1750.19     0  01:38      2.50    1.07    1.00
  HS02004799HS02004480 CONDUIT   1937.16     0  01:38      2.77    2.45    1.00
  HS02004802HS02004478 CONDUIT    366.01     0  01:42      0.68    0.32    1.00
  HS02004807HS02004802 CONDUIT    365.57     0  01:42      0.61    0.70    1.00
  HS02004817HS02004807 CONDUIT    547.84     0  01:38      0.78    0.32    1.00
  HS02004817HS02004824 CONDUIT    545.59     0  01:38      0.78    0.25    1.00
  HS02004824HS02004830 CONDUIT    761.46     0  01:39      1.13    1.00    1.00
  HS02004830HS02004837 CONDUIT    804.84     0  01:39      1.27    0.80    1.00
  HS02004837HS02004842 CONDUIT    988.90     0  01:39      1.41    0.59    1.00
  HS02004842HS02004848 CONDUIT    989.88     0  01:39      1.60    0.58    1.00
  HS02004848HS02004852 CONDUIT   1119.72     0  01:39      1.73    1.26    1.00
  HS02004852HS02004856 CONDUIT   1033.74     0  01:40      1.53    1.18    1.00
  HS02004856HS02004862 CONDUIT   1115.64     0  01:40      1.74    1.11    1.00
  HS02004862HS02004870 CONDUIT   1236.55     0  01:40      1.96    1.34    1.00
  HS02004870HS02004876 CONDUIT   1314.25     0  01:40      2.01    0.87    1.00
  HS02004876HS02004881 CONDUIT   1366.43     0  01:40      2.32   14.53    1.00
  HS02004881HS02006253 CONDUIT   1337.52     0  01:41      2.81    0.26    1.00
  HS02004901HS02004770 CONDUIT    250.34     0  01:45      0.36    0.94    1.00
  WS02001211WS02001212 CONDUIT    315.64     0  01:47      0.54    0.24    0.72
  WS02001212WS02001213 CONDUIT    344.62     0  01:47      1.04    0.53    0.61
  WS02001213WS02003059 CONDUIT    302.20     0  01:46      0.47    0.50    0.92
  WS02003059WS02003060 CONDUIT    417.25     0  01:41      0.74    0.27    0.81
  WS02003060WS02003069 CONDUIT   1477.34     0  01:49      2.27    0.58    0.60
  WS02003066WSF200     CONDUIT   1259.76     0  01:41      3.66    0.21    0.40
  WS02003067WS02003066 CONDUIT   1261.65     0  01:42      2.00    0.40    0.58
  WS02003069WS02003072 CONDUIT   1469.83     0  01:47      1.88    0.71    0.65
  WS02003072WS02003073 CONDUIT   1473.98     0  01:48      2.04    3.18    0.61
  WS02004138WS02004139 CONDUIT    190.18     0  00:29      2.16    0.04    0.43
  WS02004139WS02001211 CONDUIT    368.71     0  01:44      0.54    0.47    0.62
  WS02004401WS02004402 CONDUIT   1296.18     0  01:40      1.65    1.56    1.00
  WS02004402WS02004403 CONDUIT   1296.34     0  01:40      1.65    1.86    1.00
  WS02004403WS02004404 CONDUIT   1296.55     0  01:40      1.65    0.94    1.00
  WS02004404WS02004405 CONDUIT   1316.68     0  01:38      1.68   12.90    1.00
  WS02004405WS02004406 CONDUIT   1347.54     0  01:38      1.72    2.66    1.00
  WS02004406WS02004407 CONDUIT   1356.74     0  01:38      2.28    0.61    0.92
  WS02004407WS02004409 CONDUIT   1376.23     0  01:39      2.35    0.49    0.92
  WS02004409WS02004410 CONDUIT   1363.11     0  01:39      1.83    1.76    1.00
  WS02004410WS02004411 CONDUIT   1327.55     0  01:39      1.81    1.81    1.00
  WS02004411WS02004412 CONDUIT   1248.51     0  01:43      1.75    1.77    1.00
  WS02004412WS02004413 CONDUIT   1248.24     0  01:43      1.59    0.84    1.00
  WS02004413WS02003067 CONDUIT   1248.15     0  01:43      1.95    0.53    0.76
  WS02006109WS02006110 CONDUIT   1314.90     0  01:38      2.62    2.53    1.00
  WS02006110WS02006113 CONDUIT   1307.52     0  01:38      2.60    1.19    1.00
  WS02006111WS02006112 CONDUIT   1238.99     0  01:38      2.46    0.59    1.00
  WS02006112WS02006115 CONDUIT   1378.50     0  01:38      1.76    0.81    1.00
  WS02006113WS02006111 CONDUIT   1297.18     0  01:38      2.68    1.55    1.00
  WS02006115WS02006116 CONDUIT   1295.72     0  01:40      1.65    1.66    1.00
  WS02006116WS02004401 CONDUIT   1295.52     0  01:40      1.65    1.79    1.00
  WS02006228WS02006109 CONDUIT   1318.21     0  01:38      2.62    5.76    1.00
  WS02006229WS02006228 CONDUIT   1320.52     0  01:38      2.63    4.37    1.00
  WS02006230WS02006229 CONDUIT    952.78     0  01:42      2.48   21.20    1.00
  WS02006231WS02006230 CONDUIT    536.54     0  03:20      1.40    8.14    1.00
  WS02006232WS02006231 CONDUIT    534.83     0  03:20      1.39    1.12    1.00
  WS02006234WS02006232 CONDUIT    536.72     0  03:20      1.41    1.09    1.00
  WS02006235WS02006234 CONDUIT    535.49     0  03:20      1.39    5.65    1.00
  WS02006238WS02006235 CONDUIT    476.36     0  01:37      1.45    1.06    1.00
  WS02006239WS02006238 CONDUIT    506.51     0  01:37      1.37    1.62    1.00
  WS02006240WS02006239 CONDUIT    532.56     0  01:37      1.48    1.68    1.00
  WS02006242WS02006240 CONDUIT    425.09     0  01:37      1.14    1.69    1.00
  WS02006243WS02006242 CONDUIT    411.04     0  01:37      1.34    0.88    1.00
  WS02006245WS02006243 CONDUIT    493.84     0  01:37      1.40    1.46    1.00
  WS02006247WS02006245 CONDUIT    528.72     0  01:37      1.38    4.19    1.00
  WS02006248WS02006247 CONDUIT    534.15     0  01:37      1.39    1.16    1.00
  WS02006249WS02006248 CONDUIT    561.03     0  01:37      1.46    3.07    1.00
  WS02006251WS02006249 CONDUIT   1327.06     0  01:41      3.45    3.83    1.00
  WS02006252WS02006251 CONDUIT    415.62     0  02:53     21.61    1.53    1.00
  WS02006253WS02006251 CONDUIT   1359.48     0  01:41      3.53    4.08    1.00
  WS02006256WS02006235 CONDUIT    288.93     0  00:00      4.23    3.06    1.00
  WS02006280WS02006229 CONDUIT   2175.66     0  01:42      5.09    0.46    1.00
  WS02006284WS02006280 CONDUIT   2175.15     0  01:42      3.25    0.91    1.00
  WS02006287WS02006284 CONDUIT   2175.30     0  01:42      3.04    1.01    1.00
  WSF200WS02003060     CONDUIT   1444.21     0  01:41      3.08    0.32    0.50
  YS02001580YS02001583 CONDUIT    194.77     0  01:38      0.98    0.75    1.00
  YS02001583YS02001586 CONDUIT    217.15     0  01:38      1.02    0.33    1.00
  YS02001586YS02001590 CONDUIT    317.91     0  01:45      1.34    0.56    1.00
  YS02001590YS02001593 CONDUIT    318.11     0  01:45      1.13    2.00    1.00
  YS02001593YS02001596 CONDUIT    317.90     0  01:43      1.71    0.50    1.00
  YS02001596YS02001600 CONDUIT    318.09     0  01:45      1.18    0.62    1.00
  YS02001600YS02001601 CONDUIT    317.78     0  01:42      1.12    0.55    1.00
  YS02001601YS02001602 CONDUIT    596.87     0  01:38      2.11    2.16    1.00
  YS02001602YS02001605 CONDUIT    596.95     0  01:38      2.11   12.63    1.00
  YS02001605YS02001607 CONDUIT    597.00     0  01:38      2.11    3.27    1.00
  YS02001607YS02001610 CONDUIT    572.18     0  01:38      0.79    0.54    1.00
  YS02001610YS02001613 CONDUIT    542.13     0  01:38      0.74    0.63    1.00
  YS02001613YS02001616 CONDUIT    503.29     0  01:38      0.74    0.43    1.00
  YS02001616YS02001619 CONDUIT    500.06     0  02:01      0.71    0.87    1.00
  YS02001619YS02001622 CONDUIT    907.52     0  01:40      1.49    1.34    1.00
  YS02001622YS02001625 CONDUIT    906.66     0  01:40      1.15    0.48    1.00
  YS02001625YS02001629 CONDUIT    906.23     0  01:40      1.15    0.43    1.00
  YS02001629YS02163301 CONDUIT    904.83     0  01:40      1.15    1.11    1.00
  YS02001633YS02163601 CONDUIT   1368.46     0  01:41      1.74    1.44    1.00
  YS02001641YS02001644 CONDUIT   1366.40     0  01:41      1.74    4.42    1.00
  YS02001644YS02001647 CONDUIT   1788.64     0  01:41      2.32    1.05    1.00
  YS02001647YS02001649 CONDUIT   1810.93     0  01:40      2.38    0.96    1.00
  YS02001649YS02001757 CONDUIT   2182.65     0  01:41      2.78    1.32    1.00
  YS02001652YS02001649 CONDUIT    418.23     0  01:44      1.04    0.21    1.00
  YS02001655YS02001652 CONDUIT    464.78     0  01:41      1.87    0.23    0.98
  YS02001658YS02001655 CONDUIT    465.95     0  01:44      2.10    0.20    0.79
  YS02001661YS02001658 CONDUIT    416.10     0  01:40      2.31    0.16    0.46
  YS02001664YS02001661 CONDUIT    416.90     0  01:40      2.16    0.13    0.29
  YS02001745YS02001748 CONDUIT    288.12     0  01:40      2.18    0.11    0.32
  YS02001748YS02001751 CONDUIT    325.33     0  01:43      1.82    0.16    0.63
  YS02001751YS02001754 CONDUIT    364.99     0  01:45      1.80    0.18    0.83
  YS02001754YS02001757 CONDUIT    322.13     0  01:45      0.79    0.13    1.00
  YS02001757CaochengTiaoxuchi CONDUIT   2955.17     0  01:44      4.15    1.28    1.00
  YS02001759YS02001757 CONDUIT    989.91     0  01:42      1.26    0.70    1.00
  YS02001762YS02001759 CONDUIT    628.45     0  01:42      0.80    0.72    1.00
  YS02001765YS02001762 CONDUIT    621.17     0  01:42      0.79    0.58    1.00
  YS02001767YS02001765 CONDUIT    615.58     0  01:42      0.93    0.77    1.00
  YS02001770YS02001767 CONDUIT    619.88     0  01:42      1.00    2.46    1.00
  YS02001774YS02001770 CONDUIT    198.42     0  01:42      0.25    0.13    1.00
  YS02001779YS02001774 CONDUIT    203.46     0  01:42      0.27    0.10    1.00
  YS02001783YS02001784 CONDUIT   1145.61     0  01:42      2.28    1.58    1.00
  YS02001784YS02001785 CONDUIT   1146.81     0  01:42      2.28    2.67    1.00
  YS02001786YS02001788 CONDUIT   1147.54     0  01:42      2.45    2.21    0.89
  YS02001788YS02001790 CONDUIT   1153.18     0  01:44      2.69    0.85    0.83
  YS02001790YS02001791 CONDUIT   1275.63     0  01:43      3.41    1.39    0.70
  YS02001791YS02001793 CONDUIT   1217.56     0  01:47      6.75    0.52    0.43
  YS02001793JiankangQianchi CONDUIT   1219.17     0  01:47      2.45    0.10    0.64
  YS02001882YS02001884 CONDUIT     66.62     0  01:39      0.14    0.08    1.00
  YS02001884YS02001887 CONDUIT    106.45     0  01:38      0.18    0.14    1.00
  YS02001887YS02001890 CONDUIT    475.67     0  01:40      0.61    0.81    1.00
  YS02001890YS02001895 CONDUIT    484.13     0  01:40      0.62    0.23    1.00
  YS02001895YS02001898 CONDUIT    494.34     0  01:40      0.63    0.86    1.00
  YS02001898YS02001901 CONDUIT    515.39     0  01:40      0.66    0.33    1.00
  YS02001901YS02001904 CONDUIT    519.17     0  01:40      0.66    0.81    1.00
  YS02001904YS02001907 CONDUIT    526.25     0  01:40      0.67    0.18    1.00
  YS02001907YS02006553 CONDUIT    784.04     0  01:50      0.87    0.92    1.00
  YS02001910YS02001907 CONDUIT    890.47     0  01:42      1.13    0.50    1.00
  YS02001915YS02001910 CONDUIT    891.03     0  01:42      1.13    0.44    1.00
  YS02001918YS02001915 CONDUIT    461.68     0  01:40      0.64    0.25    1.00
  YS02001920YS02001918 CONDUIT    432.18     0  01:42      0.71    0.42    1.00
  YS02001923YS02001920 CONDUIT    428.15     0  01:42      0.89    0.19    1.00
  YS02001926YS02001923 CONDUIT    370.14     0  01:42      0.97    0.53    1.00
  YS02001929YS02001926 CONDUIT    378.42     0  01:41      1.11    0.18    1.00
  YS02006553YS02006556 CONDUIT    783.66     0  01:50      1.00    0.67    1.00
  YS02006556YS02006558 CONDUIT    783.82     0  01:50      1.00    0.62    1.00
  YS02006558YS02006561 CONDUIT   1148.80     0  01:41      4.06    2.54    1.00
  YS02006561YS02001783 CONDUIT   1145.33     0  01:42      2.29    0.59    1.00
  YS02163301YS02001633 CONDUIT    903.92     0  01:40      1.15    0.85    1.00
  YS02163601YS02164001 CONDUIT   1367.93     0  01:41      1.74    1.21    1.00
  YS02164001YS02001641 CONDUIT   1366.57     0  01:41      1.74    1.87    1.00
  YSB1154YSB6556       CONDUIT    226.04     0  01:41      0.59    0.41    1.00
  YSB1171HS02004479    CONDUIT    451.03     0  01:39      0.90    0.30    1.00
  YSB1174YSB1171       CONDUIT    213.85     0  01:38      0.56    0.33    1.00
  YSB6556YSB1171       CONDUIT    231.28     0  01:39      0.60    0.24    1.00
  CC-R1                PUMP       683.00     0  00:00              1.00
  CC-R2                PUMP       683.00     0  00:00              1.00
  CC-S1                PUMP       200.00     0  00:00              1.00
  CC-S2                PUMP       200.00     0  00:00              1.00
  JK-R1                PUMP      1000.00     0  00:00              1.00
  JK-R2                PUMP      1000.00     0  00:00              1.00
  JK-S                 PUMP       300.00     0  00:00              1.00
  XR-1                 PUMP        95.00     0  00:00              1.00
  XR-2                 PUMP        95.00     0  00:00              1.00
  XR-3                 PUMP        95.00     0  00:00              1.00
  XR-4                 PUMP        95.00     0  00:00              1.00
  
  
  ***************************
  Flow Classification Summary
  ***************************
  
  -------------------------------------------------------------------------------------
                      Adjusted    ---------- Fraction of Time in Flow Class ---------- 
                       /Actual         Up    Down  Sub   Sup   Up    Down  Norm  Inlet 
  Conduit               Length    Dry  Dry   Dry   Crit  Crit  Crit  Crit  Ltd   Ctrl  
  -------------------------------------------------------------------------------------
  1                       1.00   0.00  0.00  0.00  0.00  1.00  0.00  0.00  0.32  0.00
  HS02004478WS02006287    1.00   0.14  0.00  0.00  0.55  0.31  0.00  0.00  0.62  0.00
  HS02004479HS02004480    1.00   0.07  0.00  0.00  0.93  0.00  0.00  0.00  0.12  0.00
  HS02004480HS02004478    1.00   0.12  0.00  0.00  0.48  0.00  0.00  0.40  0.00  0.00
  HS02004770HS02004777    1.00   0.00  0.12  0.00  0.88  0.00  0.00  0.00  0.03  0.00
  HS02004777HS02004785    1.00   0.00  0.00  0.00  1.00  0.00  0.00  0.00  0.13  0.00
  HS02004785HS02004788    1.00   0.00  0.00  0.00  1.00  0.00  0.00  0.00  0.00  0.00
  HS02004788HS02004792    1.00   0.00  0.00  0.00  0.99  0.01  0.00  0.00  0.93  0.00
  HS02004792HS02004799    1.00   0.00  0.00  0.00  0.99  0.01  0.00  0.00  0.90  0.00
  HS02004799HS02004480    1.00   0.00  0.07  0.00  0.86  0.00  0.07  0.00  0.00  0.00
  HS02004802HS02004478    1.00   0.12  0.00  0.00  0.87  0.00  0.00  0.00  0.02  0.00
  HS02004807HS02004802    1.00   0.12  0.00  0.00  0.87  0.00  0.00  0.01  0.00  0.00
  HS02004817HS02004807    1.00   0.00  0.12  0.00  0.88  0.00  0.00  0.00  0.01  0.00
  HS02004817HS02004824    1.00   0.00  0.00  0.00  1.00  0.00  0.00  0.00  0.87  0.00
  HS02004824HS02004830    1.00   0.00  0.00  0.00  1.00  0.00  0.00  0.00  0.00  0.00
  HS02004830HS02004837    1.00   0.00  0.00  0.00  1.00  0.00  0.00  0.00  0.91  0.00
  HS02004837HS02004842    1.00   0.00  0.00  0.00  1.00  0.00  0.00  0.00  0.11  0.00
  HS02004842HS02004848    1.00   0.00  0.12  0.00  0.88  0.00  0.00  0.00  0.60  0.00
  HS02004848HS02004852    1.00   0.12  0.00  0.00  0.88  0.00  0.00  0.00  0.74  0.00
  HS02004852HS02004856    1.00   0.12  0.01  0.00  0.87  0.00  0.00  0.00  0.72  0.00
  HS02004856HS02004862    1.00   0.00  0.14  0.00  0.86  0.00  0.00  0.00  0.76  0.00
  HS02004862HS02004870    1.00   0.00  0.00  0.00  1.00  0.00  0.00  0.00  0.03  0.00
  HS02004870HS02004876    1.00   0.00  0.00  0.00  0.96  0.04  0.00  0.00  0.89  0.00
  HS02004876HS02004881    1.00   0.02  0.00  0.00  0.76  0.22  0.00  0.00  0.00  0.00
  HS02004881HS02006253    1.00   0.03  0.05  0.00  0.42  0.02  0.00  0.48  0.18  0.00
  HS02004901HS02004770    1.00   0.12  0.00  0.00  0.88  0.00  0.00  0.00  0.01  0.00
  WS02001211WS02001212    1.00   0.00  0.03  0.00  0.97  0.00  0.00  0.00  0.00  0.00
  WS02001212WS02001213    1.00   0.03  0.01  0.00  0.44  0.00  0.52  0.00  0.00  0.00
  WS02001213WS02003059    1.00   0.00  0.00  0.00  0.99  0.00  0.00  0.00  0.00  0.00
  WS02003059WS02003060    1.00   0.00  0.00  0.00  1.00  0.00  0.00  0.00  0.03  0.00
  WS02003060WS02003069    1.00   0.00  0.00  0.00  0.98  0.02  0.00  0.00  0.55  0.00
  WS02003066WSF200        1.00   0.10  0.00  0.00  0.00  0.90  0.00  0.00  0.70  0.00
  WS02003067WS02003066    1.00   0.09  0.00  0.00  0.91  0.00  0.00  0.00  0.00  0.00
  WS02003069WS02003072    1.00   0.00  0.00  0.00  1.00  0.00  0.00  0.00  0.71  0.00
  WS02003072WS02003073    1.00   0.00  0.00  0.00  0.00  0.00  0.00  1.00  0.00  0.00
  WS02004138WS02004139    1.00   0.00  0.00  0.00  0.95  0.03  0.00  0.02  0.98  0.00
  WS02004139WS02001211    1.00   0.00  0.00  0.00  0.99  0.00  0.00  0.00  0.00  0.00
  WS02004401WS02004402    1.00   0.03  0.00  0.00  0.96  0.00  0.00  0.00  0.00  0.00
  WS02004402WS02004403    1.00   0.04  0.00  0.00  0.96  0.00  0.00  0.00  0.00  0.00
  WS02004403WS02004404    1.00   0.00  0.04  0.00  0.95  0.00  0.00  0.00  0.00  0.00
  WS02004404WS02004405    1.00   0.00  0.00  0.00  1.00  0.00  0.00  0.00  0.02  0.00
  WS02004405WS02004406    1.00   0.00  0.00  0.00  1.00  0.00  0.00  0.00  0.00  0.00
  WS02004406WS02004407    1.00   0.00  0.08  0.00  0.92  0.00  0.00  0.00  0.00  0.00
  WS02004407WS02004409    1.00   0.08  0.00  0.00  0.90  0.02  0.00  0.00  0.87  0.00
  WS02004409WS02004410    1.00   0.08  0.00  0.00  0.92  0.00  0.00  0.00  0.00  0.00
  WS02004410WS02004411    1.00   0.08  0.00  0.00  0.92  0.00  0.00  0.00  0.00  0.00
  WS02004411WS02004412    1.00   0.08  0.00  0.00  0.92  0.00  0.00  0.00  0.00  0.00
  WS02004412WS02004413    1.00   0.08  0.00  0.00  0.92  0.00  0.00  0.00  0.00  0.00
  WS02004413WS02003067    1.00   0.08  0.01  0.00  0.00  0.00  0.91  0.00  0.00  0.00
  WS02006109WS02006110    1.00   0.00  0.01  0.00  0.98  0.00  0.01  0.00  0.00  0.00
  WS02006110WS02006113    1.00   0.01  0.01  0.00  0.98  0.00  0.00  0.00  0.00  0.00
  WS02006111WS02006112    1.00   0.02  0.00  0.00  0.97  0.01  0.00  0.00  0.78  0.00
  WS02006112WS02006115    1.00   0.02  0.01  0.00  0.96  0.00  0.01  0.00  0.00  0.00
  WS02006113WS02006111    1.00   0.02  0.00  0.00  0.24  0.75  0.00  0.00  0.06  0.00
  WS02006115WS02006116    1.00   0.03  0.00  0.00  0.94  0.00  0.00  0.03  0.00  0.00
  WS02006116WS02004401    1.00   0.03  0.00  0.00  0.97  0.00  0.00  0.00  0.00  0.00
  WS02006228WS02006109    1.00   0.00  0.00  0.00  1.00  0.00  0.00  0.00  0.00  0.00
  WS02006229WS02006228    1.00   0.00  0.00  0.00  0.99  0.00  0.00  0.01  0.00  0.00
  WS02006230WS02006229    1.00   0.00  0.00  0.00  0.99  0.00  0.00  0.01  0.04  0.00
  WS02006231WS02006230    1.00   0.00  0.00  0.00  0.45  0.00  0.54  0.00  0.00  0.00
  WS02006232WS02006231    1.00   0.00  0.00  0.00  0.99  0.00  0.00  0.00  0.00  0.00
  WS02006234WS02006232    1.00   0.00  0.00  0.00  1.00  0.00  0.00  0.00  0.03  0.00
  WS02006235WS02006234    1.00   0.00  0.00  0.00  0.93  0.00  0.07  0.00  0.00  0.00
  WS02006238WS02006235    1.00   0.00  0.00  0.00  1.00  0.00  0.00  0.00  0.00  0.00
  WS02006239WS02006238    1.00   0.00  0.00  0.00  1.00  0.00  0.00  0.00  0.12  0.00
  WS02006240WS02006239    1.00   0.00  0.00  0.00  0.78  0.00  0.00  0.22  0.04  0.00
  WS02006242WS02006240    1.00   0.00  0.00  0.00  0.99  0.00  0.00  0.00  0.00  0.00
  WS02006243WS02006242    1.00   0.00  0.00  0.00  0.99  0.00  0.00  0.00  0.67  0.00
  WS02006245WS02006243    1.00   0.00  0.00  0.00  0.86  0.00  0.00  0.14  0.01  0.00
  WS02006247WS02006245    1.00   0.00  0.00  0.00  0.98  0.00  0.00  0.02  0.00  0.00
  WS02006248WS02006247    1.00   0.00  0.00  0.00  1.00  0.00  0.00  0.00  0.64  0.00
  WS02006249WS02006248    1.00   0.00  0.00  0.00  0.56  0.00  0.43  0.00  0.00  0.00
  WS02006251WS02006249    1.00   0.00  0.00  0.00  1.00  0.00  0.00  0.00  0.64  0.00
  WS02006252WS02006251    1.00   0.00  0.40  0.00  0.32  0.00  0.28  0.00  0.00  0.00
  WS02006253WS02006251    1.00   0.00  0.00  0.00  1.00  0.00  0.00  0.00  0.01  0.00
  WS02006256WS02006235    1.00   0.00  0.00  0.00  0.97  0.03  0.00  0.00  0.01  0.00
  WS02006280WS02006229    1.00   0.12  0.00  0.00  0.15  0.08  0.00  0.65  0.02  0.00
  WS02006284WS02006280    1.00   0.12  0.00  0.00  0.11  0.01  0.00  0.76  0.00  0.00
  WS02006287WS02006284    1.00   0.11  0.03  0.00  0.43  0.42  0.00  0.01  0.66  0.00
  WSF200WS02003060        1.00   0.00  0.10  0.00  0.49  0.41  0.00  0.00  0.67  0.00
  YS02001580YS02001583    1.00   0.19  0.58  0.00  0.24  0.00  0.00  0.00  0.73  0.00
  YS02001583YS02001586    1.00   0.32  0.30  0.00  0.38  0.00  0.00  0.00  0.74  0.00
  YS02001586YS02001590    1.00   0.12  0.00  0.00  0.56  0.03  0.00  0.29  0.33  0.00
  YS02001590YS02001593    1.00   0.12  0.00  0.00  0.13  0.00  0.75  0.00  0.00  0.00
  YS02001593YS02001596    1.00   0.12  0.00  0.00  0.15  0.01  0.00  0.71  0.02  0.00
  YS02001596YS02001600    1.00   0.13  0.00  0.00  0.24  0.03  0.00  0.60  0.06  0.00
  YS02001600YS02001601    1.00   0.12  0.00  0.00  0.87  0.00  0.00  0.00  0.64  0.00
  YS02001601YS02001602    1.00   0.12  0.01  0.00  0.87  0.00  0.00  0.00  0.00  0.00
  YS02001602YS02001605    1.00   0.13  0.00  0.00  0.87  0.00  0.00  0.00  0.00  0.00
  YS02001605YS02001607    1.00   0.13  0.00  0.00  0.87  0.00  0.00  0.00  0.00  0.00
  YS02001607YS02001610    1.00   0.12  0.00  0.00  0.87  0.00  0.00  0.00  0.02  0.00
  YS02001610YS02001613    1.00   0.12  0.00  0.00  0.88  0.00  0.00  0.00  0.01  0.00
  YS02001613YS02001616    1.00   0.12  0.00  0.00  0.88  0.00  0.00  0.00  0.01  0.00
  YS02001616YS02001619    1.00   0.12  0.00  0.00  0.88  0.00  0.00  0.00  0.00  0.00
  YS02001619YS02001622    1.00   0.12  0.00  0.00  0.88  0.00  0.00  0.00  0.32  0.00
  YS02001622YS02001625    1.00   0.12  0.00  0.00  0.88  0.00  0.00  0.00  0.06  0.00
  YS02001625YS02001629    1.00   0.12  0.03  0.00  0.17  0.00  0.68  0.00  0.00  0.00
  YS02001629YS02163301    1.00   0.14  0.00  0.00  0.86  0.00  0.00  0.00  0.00  0.00
  YS02001633YS02163601    1.00   0.00  0.01  0.00  0.99  0.00  0.00  0.00  0.16  0.00
  YS02001641YS02001644    1.00   0.00  0.00  0.00  1.00  0.00  0.00  0.00  0.00  0.00
  YS02001644YS02001647    1.00   0.00  0.14  0.00  0.85  0.00  0.00  0.00  0.00  0.00
  YS02001647YS02001649    1.00   0.00  0.14  0.00  0.42  0.43  0.00  0.00  0.60  0.00
  YS02001649YS02001757    1.00   0.00  0.00  0.00  0.56  0.44  0.00  0.00  0.57  0.00
  YS02001652YS02001649    1.00   0.00  0.00  0.00  0.97  0.03  0.00  0.00  0.78  0.00
  YS02001655YS02001652    1.00   0.00  0.00  0.00  0.19  0.03  0.00  0.78  0.07  0.00
  YS02001658YS02001655    1.00   0.00  0.13  0.00  0.49  0.38  0.00  0.00  0.76  0.00
  YS02001661YS02001658    1.00   0.13  0.00  0.00  0.31  0.56  0.00  0.00  0.78  0.00
  YS02001664YS02001661    1.00   0.12  0.00  0.00  0.70  0.18  0.00  0.00  0.86  0.00
  YS02001745YS02001748    1.00   0.00  0.00  0.00  0.02  0.04  0.00  0.94  0.04  0.00
  YS02001748YS02001751    1.00   0.00  0.00  0.00  0.65  0.35  0.00  0.00  0.82  0.00
  YS02001751YS02001754    1.00   0.00  0.00  0.00  0.14  0.01  0.00  0.85  0.02  0.00
  YS02001754YS02001757    1.00   0.00  0.00  0.00  1.00  0.00  0.00  0.00  0.90  0.00
  YS02001757CaochengTiaoxuchi    1.00   0.00  0.00  0.00  0.96  0.04  0.00  0.00  0.89  0.00
  YS02001759YS02001757    1.00   0.00  0.00  0.00  1.00  0.00  0.00  0.00  0.65  0.00
  YS02001762YS02001759    1.00   0.00  0.00  0.00  1.00  0.00  0.00  0.00  0.04  0.00
  YS02001765YS02001762    1.00   0.00  0.00  0.00  1.00  0.00  0.00  0.00  0.78  0.00
  YS02001767YS02001765    1.00   0.00  0.00  0.00  1.00  0.00  0.00  0.00  0.00  0.00
  YS02001770YS02001767    1.00   0.00  0.00  0.00  1.00  0.00  0.00  0.00  0.00  0.00
  YS02001774YS02001770    1.00   0.00  0.12  0.00  0.76  0.00  0.11  0.00  0.04  0.00
  YS02001779YS02001774    1.00   0.00  0.00  0.00  1.00  0.00  0.00  0.00  0.84  0.00
  YS02001783YS02001784    1.00   0.00  0.15  0.00  0.85  0.00  0.00  0.00  0.58  0.00
  YS02001784YS02001785    1.00   0.00  0.00  0.00  1.00  0.00  0.00  0.00  0.18  0.00
  YS02001786YS02001788    1.00   0.00  0.00  0.00  0.61  0.39  0.00  0.00  0.00  0.00
  YS02001788YS02001790    1.00   0.00  0.00  0.00  0.18  0.82  0.00  0.00  0.87  0.00
  YS02001790YS02001791    1.00   0.00  0.00  0.00  0.01  0.99  0.00  0.00  0.16  0.00
  YS02001791YS02001793    1.00   0.00  0.00  0.00  0.00  1.00  0.00  0.00  0.00  0.00
  YS02001793JiankangQianchi    1.00   0.00  0.00  0.00  0.98  0.02  0.00  0.00  0.98  0.00
  YS02001882YS02001884    1.00   0.13  0.00  0.00  0.86  0.00  0.00  0.00  0.00  0.00
  YS02001884YS02001887    1.00   0.09  0.03  0.00  0.89  0.00  0.00  0.00  0.00  0.00
  YS02001887YS02001890    1.00   0.00  0.00  0.00  0.94  0.00  0.05  0.00  0.00  0.00
  YS02001890YS02001895    1.00   0.00  0.14  0.00  0.86  0.00  0.00  0.00  0.00  0.00
  YS02001895YS02001898    1.00   0.14  0.00  0.00  0.85  0.00  0.01  0.00  0.00  0.00
  YS02001898YS02001901    1.00   0.14  0.00  0.00  0.86  0.00  0.00  0.00  0.01  0.00
  YS02001901YS02001904    1.00   0.14  0.00  0.00  0.86  0.00  0.00  0.00  0.00  0.00
  YS02001904YS02001907    1.00   0.00  0.14  0.00  0.86  0.00  0.00  0.00  0.00  0.00
  YS02001907YS02006553    1.00   0.00  0.03  0.00  0.97  0.00  0.00  0.00  0.00  0.00
  YS02001910YS02001907    1.00   0.00  0.00  0.00  0.95  0.01  0.00  0.04  0.12  0.00
  YS02001915YS02001910    1.00   0.00  0.00  0.00  0.96  0.04  0.00  0.00  0.17  0.00
  YS02001918YS02001915    1.00   0.00  0.00  0.00  0.96  0.03  0.00  0.00  0.78  0.00
  YS02001920YS02001918    1.00   0.00  0.00  0.00  1.00  0.00  0.00  0.00  0.00  0.00
  YS02001923YS02001920    1.00   0.00  0.00  0.00  1.00  0.00  0.00  0.00  0.95  0.00
  YS02001926YS02001923    1.00   0.00  0.10  0.00  0.05  0.00  0.85  0.00  0.00  0.00
  YS02001929YS02001926    1.00   0.00  0.12  0.00  0.88  0.00  0.00  0.00  0.85  0.00
  YS02006553YS02006556    1.00   0.01  0.00  0.00  0.99  0.00  0.00  0.00  0.03  0.00
  YS02006556YS02006558    1.00   0.00  0.00  0.00  1.00  0.00  0.00  0.00  0.00  0.00
  YS02006558YS02006561    1.00   0.15  0.00  0.00  0.05  0.80  0.00  0.00  0.20  0.00
  YS02006561YS02001783    1.00   0.15  0.00  0.00  0.09  0.76  0.00  0.00  0.72  0.00
  YS02163301YS02001633    1.00   0.00  0.14  0.00  0.86  0.00  0.00  0.00  0.00  0.00
  YS02163601YS02164001    1.00   0.00  0.10  0.00  0.90  0.00  0.00  0.00  0.00  0.00
  YS02164001YS02001641    1.00   0.01  0.09  0.00  0.90  0.00  0.00  0.00  0.06  0.00
  YSB1154YSB6556          1.00   0.12  0.00  0.00  0.88  0.00  0.00  0.00  0.02  0.00
  YSB1171HS02004479       1.00   0.07  0.00  0.00  0.92  0.00  0.00  0.01  0.11  0.00
  YSB1174YSB1171          1.00   0.08  0.02  0.00  0.90  0.00  0.00  0.00  0.00  0.00
  YSB6556YSB1171          1.00   0.07  0.05  0.00  0.88  0.00  0.00  0.00  0.00  0.00
  
  
  *************************
  Conduit Surcharge Summary
  *************************
  
  ----------------------------------------------------------------------------
                                                           Hours        Hours 
                         --------- Hours Full --------   Above Full   Capacity
  Conduit                Both Ends  Upstream  Dnstream   Normal Flow   Limited
  ----------------------------------------------------------------------------
  HS02004478WS02006287        0.26      0.26      0.39      0.01         0.01
  HS02004479HS02004480        0.41      0.41      0.42      0.01         0.01
  HS02004480HS02004478        0.34      0.40      0.34      1.32         0.34
  HS02004770HS02004777        0.33      0.33      0.34      0.10         0.07
  HS02004777HS02004785        0.28      0.28      0.34      0.01         0.01
  HS02004785HS02004788        0.27      0.28      0.27      0.98         0.27
  HS02004788HS02004792        0.27      0.27      0.38      0.01         0.01
  HS02004792HS02004799        0.38      0.38      0.46      0.01         0.01
  HS02004799HS02004480        0.40      0.40      0.46      0.52         0.01
  HS02004802HS02004478        0.35      0.35      0.41      0.01         0.01
  HS02004807HS02004802        0.39      0.39      0.40      0.01         0.01
  HS02004817HS02004807        0.39      0.39      0.82      0.01         0.01
  HS02004817HS02004824        0.27      0.27      0.82      0.01         0.01
  HS02004824HS02004830        0.25      0.25      0.27      0.01         0.01
  HS02004830HS02004837        0.20      0.20      0.25      0.01         0.01
  HS02004837HS02004842        0.20      0.20      0.33      0.01         0.01
  HS02004842HS02004848        0.17      0.17      0.33      0.01         0.01
  HS02004848HS02004852        0.17      0.17      0.20      0.03         0.01
  HS02004852HS02004856        0.19      0.20      0.22      0.02         0.01
  HS02004856HS02004862        0.18      0.18      0.21      0.02         0.01
  HS02004862HS02004870        0.21      0.21      0.23      0.02         0.01
  HS02004870HS02004876        0.23      0.23      0.31      0.01         0.01
  HS02004876HS02004881        0.29      0.31      0.29      1.01         0.29
  HS02004881HS02006253        0.29      0.29      1.45      0.01         0.01
  HS02004901HS02004770        0.33      0.33      0.34      0.01         0.01
  WS02003072WS02003073        0.01      0.01      0.01      2.06         0.01
  WS02004401WS02004402        1.36      1.36      1.37      1.00         0.97
  WS02004402WS02004403        1.37      1.37      1.38      1.36         1.34
  WS02004403WS02004404        1.38      1.38      1.60      0.01         0.02
  WS02004404WS02004405        1.59      1.60      1.59      2.49         1.58
  WS02004405WS02004406        1.54      1.59      1.54      1.68         1.53
  WS02004406WS02004407        0.01      0.01      1.54      0.01         0.01
  WS02004407WS02004409        0.01      0.01      0.61      0.01         0.01
  WS02004409WS02004410        0.56      0.61      0.56      1.12         0.56
  WS02004410WS02004411        0.51      0.56      0.51      1.30         0.51
  WS02004411WS02004412        0.43      0.51      0.43      1.36         0.43
  WS02004412WS02004413        0.43      0.43      0.94      0.01         0.01
  WS02004413WS02003067        0.01      0.01      0.94      0.01         0.01
  WS02006109WS02006110        1.62      1.62      1.88      1.63         0.01
  WS02006110WS02006113        0.86      0.86      1.88      0.33         0.01
  WS02006111WS02006112        0.78      0.78      1.98      0.01         0.01
  WS02006112WS02006115        1.14      1.14      1.80      0.01         0.01
  WS02006113WS02006111        0.82      0.86      0.82      0.98         0.81
  WS02006115WS02006116        1.17      1.17      1.19      1.12         1.09
  WS02006116WS02004401        1.35      1.35      1.36      1.33         1.30
  WS02006228WS02006109        1.86      1.88      1.86      2.01         1.86
  WS02006229WS02006228        1.86      1.87      1.86      1.94         1.86
  WS02006230WS02006229        1.89      1.90      1.89      3.07         1.23
  WS02006231WS02006230        1.59      1.59      1.60      2.55         0.61
  WS02006232WS02006231        1.60      1.60      1.79      0.02         0.11
  WS02006234WS02006232        1.66      1.66      1.79      0.01         0.04
  WS02006235WS02006234        1.60      1.61      1.67      2.18         0.58
  WS02006238WS02006235        1.69      1.69      1.75      0.01         0.22
  WS02006239WS02006238        1.71      1.73      1.72      1.09         0.52
  WS02006240WS02006239        1.64      1.66      1.64      1.02         0.43
  WS02006242WS02006240        1.64      1.65      1.75      1.31         0.56
  WS02006243WS02006242        1.66      1.66      1.72      0.01         0.02
  WS02006245WS02006243        1.65      1.65      1.65      0.41         0.39
  WS02006247WS02006245        1.64      1.66      1.64      1.95         0.87
  WS02006248WS02006247        1.63      1.64      1.66      0.01         0.03
  WS02006249WS02006248        1.61      1.61      1.65      1.10         0.01
  WS02006251WS02006249        1.64      1.65      1.65      1.62         1.52
  WS02006252WS02006251        1.68      1.68      1.76      1.51         0.01
  WS02006253WS02006251        1.64      1.64      1.68      0.50         0.03
  WS02006256WS02006235        2.36      2.40      7.20      0.72         0.01
  WS02006280WS02006229        0.47      0.47      0.56      0.01         0.01
  WS02006284WS02006280        0.40      0.40      0.46      0.01         0.01
  WS02006287WS02006284        0.33      0.33      0.41      0.04         0.04
  YS02001580YS02001583        0.28      0.28      0.33      0.01         0.01
  YS02001583YS02001586        0.29      0.29      0.44      0.01         0.01
  YS02001586YS02001590        0.45      0.45      0.50      0.01         0.01
  YS02001590YS02001593        0.50      0.50      0.52      0.55         0.01
  YS02001593YS02001596        0.51      0.51      0.58      0.01         0.01
  YS02001596YS02001600        0.61      0.61      0.69      0.01         0.01
  YS02001600YS02001601        0.75      0.75      1.02      0.01         0.01
  YS02001601YS02001602        0.90      0.90      1.06      0.72         0.01
  YS02001602YS02001605        0.86      0.86      0.90      1.86         0.01
  YS02001605YS02001607        0.82      0.86      0.82      0.97         0.82
  YS02001607YS02001610        0.45      0.45      0.47      0.01         0.01
  YS02001610YS02001613        0.44      0.44      0.47      0.01         0.01
  YS02001613YS02001616        0.40      0.40      0.44      0.01         0.01
  YS02001616YS02001619        0.39      0.39      0.40      0.01         0.01
  YS02001619YS02001622        0.38      0.39      0.38      0.54         0.36
  YS02001622YS02001625        0.38      0.38      0.54      0.01         0.01
  YS02001625YS02001629        0.32      0.32      0.54      0.01         0.01
  YS02001629YS02163301        0.53      0.53      0.54      0.28         0.25
  YS02001633YS02163601        0.55      0.55      0.57      0.44         0.43
  YS02001641YS02001644        0.45      0.48      0.45      1.12         0.45
  YS02001644YS02001647        0.22      0.22      0.45      0.04         0.01
  YS02001647YS02001649        0.22      0.22      0.34      0.01         0.01
  YS02001649YS02001757        0.33      0.34      0.37      0.24         0.21
  YS02001652YS02001649        0.12      0.12      0.34      0.01         0.01
  YS02001655YS02001652        0.01      0.01      0.09      0.01         0.01
  YS02001754YS02001757        0.01      0.01      0.37      0.01         0.01
  YS02001757CaochengTiaoxuchi        0.23      0.37      1.05      0.22         0.05
  YS02001759YS02001757        0.24      0.24      0.37      0.01         0.01
  YS02001762YS02001759        0.20      0.20      0.24      0.01         0.01
  YS02001765YS02001762        0.13      0.13      0.20      0.01         0.01
  YS02001767YS02001765        0.11      0.11      0.13      0.01         0.01
  YS02001770YS02001767        0.11      0.11      0.11      0.35         0.08
  YS02001774YS02001770        0.09      0.09      0.19      0.01         0.01
  YS02001779YS02001774        0.01      0.01      0.19      0.01         0.01
  YS02001783YS02001784        0.31      0.33      0.31      0.44         0.31
  YS02001784YS02001785        0.20      0.31      0.20      0.61         0.20
  YS02001786YS02001788        0.01      0.20      0.01      0.51         0.01
  YS02001790YS02001791        0.01      0.01      0.01      0.29         0.01
  YS02001793JiankangQianchi        0.01      0.01      6.28      0.01         0.01
  YS02001882YS02001884        0.28      0.28      0.29      0.01         0.01
  YS02001884YS02001887        0.31      0.31      0.32      0.01         0.01
  YS02001887YS02001890        0.33      0.33      0.34      0.01         0.01
  YS02001890YS02001895        0.27      0.27      0.36      0.01         0.01
  YS02001895YS02001898        0.26      0.26      0.27      0.01         0.01
  YS02001898YS02001901        0.27      0.27      0.31      0.01         0.01
  YS02001901YS02001904        0.30      0.30      0.31      0.01         0.01
  YS02001904YS02001907        0.30      0.30      0.50      0.01         0.01
  YS02001907YS02006553        0.62      0.62      0.66      0.01         0.01
  YS02001910YS02001907        0.36      0.36      0.49      0.01         0.01
  YS02001915YS02001910        0.28      0.28      0.36      0.01         0.01
  YS02001918YS02001915        0.19      0.19      0.28      0.01         0.01
  YS02001920YS02001918        0.19      0.19      0.21      0.01         0.01
  YS02001923YS02001920        0.13      0.13      0.21      0.01         0.01
  YS02001926YS02001923        0.01      0.01      0.01      0.01         0.01
  YS02001929YS02001926        0.01      0.01      0.01      0.01         0.01
  YS02006553YS02006556        0.42      0.42      0.49      0.01         0.01
  YS02006556YS02006558        0.46      0.46      0.51      0.01         0.01
  YS02006558YS02006561        0.22      0.41      0.22      0.57         0.22
  YS02006561YS02001783        0.15      0.15      0.33      0.01         0.01
  YS02163301YS02001633        0.54      0.54      0.57      0.01         0.01
  YS02163601YS02164001        0.49      0.49      0.57      0.24         0.01
  YS02164001YS02001641        0.48      0.49      0.48      0.61         0.48
  YSB1154YSB6556              0.44      0.44      0.54      0.01         0.01
  YSB1171HS02004479           0.37      0.37      0.54      0.01         0.01
  YSB1174YSB1171              0.48      0.48      0.73      0.01         0.01
  YSB6556YSB1171              0.44      0.44      0.86      0.01         0.01
  
  
  ***************
  Pumping Summary
  ***************
  
  ---------------------------------------------------------------------------------------------------------
                                                  Min       Avg       Max     Total     Power    % Time Off
                        Percent   Number of      Flow      Flow      Flow    Volume     Usage    Pump Curve
  Pump                 Utilized   Start-Ups       LPS       LPS       LPS  10^6 ltr     Kw-hr    Low   High
  ---------------------------------------------------------------------------------------------------------
  CC-R1                   14.56          24      0.00    683.00    683.00     2.864     50.66    0.0   41.5
  CC-R2                   14.61          29      0.00    683.00    683.00     2.873     50.46    0.0   53.6
  CC-S1                   20.96          26      0.00    200.00    200.00     1.207      8.33    0.0    0.0
  CC-S2                   24.36          24      0.00    200.00    200.00     1.403      9.94    0.0    0.0
  JK-R1                    3.87          14      0.00   1000.00   1000.00     1.115     10.11    0.0    0.0
  JK-R2                    3.05          12      0.00   1000.00   1000.00     0.879      7.69    0.0    0.0
  JK-S                    11.79          42      0.00    300.00    300.00     1.019     18.56    0.0    0.0
  XR-1                    97.91           2      0.00     95.00     95.00     2.679      9.62    0.0    0.0
  XR-2                    93.94           2      0.00     95.00     95.00     2.570      8.78    0.0    0.0
  XR-3                     0.00           1      0.00     95.00     95.00     0.000      0.00    0.0    0.0
  XR-4                     0.00           1      0.00     95.00     95.00     0.000      0.00    0.0    0.0
  

  Analysis begun on:  Fri Feb 24 05:44:12 2023
  Analysis ended on:  Fri Feb 24 05:44:15 2023
  Total elapsed time: 00:00:03