
  OWA STORM WATER MANAGEMENT MODEL - VERSION v5.1.14 (OWA 2023-01-25)
  --------------------------------------------------------------

  WARNING 04: minimum elevation drop used for Conduit WS02004404WS02004405
  WARNING 03: negative offset ignored for Link YS02001904YS02001907
  
  *********************************************************
  NOTE: The summary statistics displayed in this report are
  based on results found at every computational time step,  
  not just on results from each reporting time step.
  *********************************************************
  
  ****************
  Analysis Options
  ****************
  Flow Units ............... LPS
  Process Models:
    Rainfall/Runoff ........ YES
    RDII ................... NO
    Snowmelt ............... NO
    Groundwater ............ NO
    Flow Routing ........... YES
    Ponding Allowed ........ NO
    Water Quality .......... NO
  Infiltration Method ...... HORTON
  Flow Routing Method ...... DYNWAVE
  Surcharge Method ......... EXTRAN
  Starting Date ............ 08/28/2015 08:00:00
  Ending Date .............. 08/28/2015 16:00:00
  Antecedent Dry Days ...... 8.0
  Report Time Step ......... 00:01:00
  Wet Time Step ............ 00:01:00
  Dry Time Step ............ 00:01:00
  Routing Time Step ........ 30.00 sec
  Variable Time Step ....... YES
  Maximum Trials ........... 8
  Number of Threads ........ 1
  Head Tolerance ........... 0.001500 m
  
  
  **************************        Volume         Depth
  Runoff Quantity Continuity     hectare-m            mm
  **************************     ---------       -------
  Total Precipitation ......         2.839        46.860
  Evaporation Loss .........         0.000         0.000
  Infiltration Loss ........         0.231         3.805
  Surface Runoff ...........         2.548        42.060
  Final Storage ............         0.061         1.006
  Continuity Error (%) .....        -0.022
  
  
  **************************        Volume        Volume
  Flow Routing Continuity        hectare-m      10^6 ltr
  **************************     ---------     ---------
  Dry Weather Inflow .......         0.630         6.296
  Wet Weather Inflow .......         2.548        25.479
  Groundwater Inflow .......         0.000         0.000
  RDII Inflow ..............         0.000         0.000
  External Inflow ..........         0.105         1.045
  External Outflow .........         2.213        22.131
  Flooding Loss ............         1.060        10.600
  Evaporation Loss .........         0.000         0.000
  Exfiltration Loss ........         0.000         0.000
  Initial Stored Volume ....         0.303         3.031
  Final Stored Volume ......         0.323         3.227
  Continuity Error (%) .....        -0.300
  
  
  *************************
  Highest Continuity Errors
  *************************
  Node YS02001583 (-5.54%)
  Node YS02001884 (5.40%)
  Node HS02004842 (1.96%)
  Node WS02006256 (-1.37%)
  Node YS02001774 (1.28%)
  
  
  ***************************
  Time-Step Critical Elements
  ***************************
  Link WS02006252WS02006251 (33.67%)
  Link WS02006280WS02006229 (25.42%)
  Link WS02006238WS02006235 (10.91%)
  Link WS02004404WS02004405 (9.88%)
  Link YS02001791YS02001793 (4.95%)
  
  
  ********************************
  Highest Flow Instability Indexes
  ********************************
  Link WS02006113WS02006111 (38)
  Link WS02006111WS02006112 (23)
  Link WS02006238WS02006235 (19)
  Link WS02006256WS02006235 (19)
  Link WS02006252WS02006251 (18)
  
  
  *************************
  Routing Time Step Summary
  *************************
  Minimum Time Step           :     0.01 sec
  Average Time Step           :     1.95 sec
  Maximum Time Step           :     6.46 sec
  Percent in Steady State     :    -0.00
  Average Iterations per Step :     3.34
  Percent Not Converging      :    14.30
  
  
  ***************************
  Subcatchment Runoff Summary
  ***************************
  
  ------------------------------------------------------------------------------------------------------------------------------
                            Total      Total      Total      Total     Imperv       Perv      Total       Total     Peak  Runoff
                           Precip      Runon       Evap      Infil     Runoff     Runoff     Runoff      Runoff   Runoff   Coeff
  Subcatchment                 mm         mm         mm         mm         mm         mm         mm    10^6 ltr      LPS
  ------------------------------------------------------------------------------------------------------------------------------
  sub0                      46.86       0.00       0.00       0.96      42.33       2.32      44.65        0.04    28.95   0.953
  sub1                      46.86       0.00       0.00       1.63      40.46       3.53      43.98        0.29   191.81   0.939
  sub10                     46.86       0.00       0.00       1.15      41.83       2.60      44.43        0.49   327.55   0.948
  sub11                     46.86       0.00       0.00       1.13      41.85       2.62      44.47        0.52   364.06   0.949
  sub12                     46.86       0.00       0.00       1.84      39.59       4.26      43.85        0.38   296.14   0.936
  sub14                     46.86       0.00       0.00       1.29      41.38       2.93      44.31        0.42   289.69   0.946
  sub15                     46.86       0.00       0.00       5.08      31.83       8.98      40.81        0.70   441.71   0.871
  sub16                     46.86       0.00       0.00       5.24      30.49      10.22      40.71        0.43   297.78   0.869
  sub17                     46.86       0.00       0.00       5.11      30.94       9.88      40.82        0.35   241.26   0.871
  sub2                      46.86       0.00       0.00       7.24      28.62      10.10      38.72        0.36   190.94   0.826
  sub22                     46.86       0.00       0.00       7.70      25.93      12.45      38.38        2.42  1461.12   0.819
  sub23                     46.86       0.00       0.00       6.28      28.66      11.06      39.72        1.89  1216.22   0.848
  sub3                      46.86       0.00       0.00       7.82      28.58       9.52      38.10        0.86   410.26   0.813
  sub4                      46.86       0.00       0.00       1.83      40.29       3.33      43.62        0.91   456.55   0.931
  sub5                      46.86       0.00       0.00       1.00      42.28       2.28      44.56        0.50   331.21   0.951
  sub60                     46.86       0.00       0.00       1.73      40.03       3.89      43.93        0.58   412.86   0.937
  sub61                     46.86       0.00       0.00       2.51      37.76       5.46      43.22        0.79   572.16   0.922
  sub62                     46.86       0.00       0.00       1.15      41.82       2.60      44.42        1.22   802.72   0.948
  sub63                     46.86       0.00       0.00       4.65      32.30       8.94      41.24        0.94   633.93   0.880
  sub64                     46.86       0.00       0.00       2.35      38.62       4.68      43.30        1.04   648.51   0.924
  sub65                     46.86       0.00       0.00       2.03      39.51       4.06      43.57        1.20   722.30   0.930
  sub66                     46.86       0.00       0.00       5.75      32.19       7.84      40.03        1.87   924.02   0.854
  sub67                     46.86       0.00       0.00       1.11      41.86       2.64      44.50        0.83   629.40   0.950
  sub68                     46.86       0.00       0.00       2.08      39.11       4.48      43.59        1.20   821.90   0.930
  sub69                     46.86       0.00       0.00       1.84      39.72       5.19      44.91        1.66   962.30   0.958
  sub7                      46.86       0.00       0.00       1.27      41.40       2.95      44.35        0.15   108.25   0.946
  sub70                     46.86       0.00       0.00       6.13      30.76       9.80      40.56        1.17   518.38   0.866
  sub71                     46.86       0.00       0.00       1.18      41.78       2.57      44.35        1.16   702.49   0.946
  sub72                     46.86       0.00       0.00       1.05      42.18       2.23      44.40        0.61   336.34   0.948
  sub8                      46.86       0.00       0.00       1.28      41.39       2.93      44.32        0.28   196.92   0.946
  sub9                      46.86       0.00       0.00       1.29      41.39       2.93      44.32        0.21   147.21   0.946
  
  
  ******************
  Node Depth Summary
  ******************
  
  ---------------------------------------------------------------------------------
                                 Average  Maximum  Maximum  Time of Max    Reported
                                   Depth    Depth      HGL   Occurrence   Max Depth
  Node                 Type       Meters   Meters   Meters  days hr:min      Meters
  ---------------------------------------------------------------------------------
  HS02004478           JUNCTION     0.17     1.86    11.09     0  02:14        1.86
  HS02004479           JUNCTION     0.23     1.68    10.89     0  02:10        1.66
  HS02004480           JUNCTION     0.20     1.77    11.01     0  02:14        1.77
  HS02004770           JUNCTION     0.21     1.42    11.25     0  02:08        1.42
  HS02004777           JUNCTION     0.24     1.48    11.28     0  02:08        1.48
  HS02004785           JUNCTION     0.14     1.49    11.39     0  02:08        1.42
  HS02004788           JUNCTION     0.11     1.42    11.32     0  02:08        1.42
  HS02004792           JUNCTION     0.15     1.60    11.12     0  02:08        1.60
  HS02004799           JUNCTION     0.25     1.76    10.97     0  02:10        1.76
  HS02004802           JUNCTION     0.26     1.92    11.05     0  02:14        1.92
  HS02004807           JUNCTION     0.23     1.92    11.09     0  02:13        1.92
  HS02004817           JUNCTION     0.53     2.44    11.29     0  02:13        2.44
  HS02004824           JUNCTION     0.11     2.01    11.41     0  02:13        2.01
  HS02004830           JUNCTION     0.12     2.03    11.50     0  02:13        2.03
  HS02004837           JUNCTION     0.10     2.04    11.62     0  02:10        2.04
  HS02004842           JUNCTION     0.39     2.22    11.49     0  02:10        2.22
  HS02004848           JUNCTION     0.08     2.07    11.67     0  02:10        2.07
  HS02004852           JUNCTION     0.08     2.12    11.63     0  02:14        2.12
  HS02004856           JUNCTION     0.14     2.07    11.50     0  02:10        2.07
  HS02004862           JUNCTION     0.09     2.00    11.38     0  02:10        2.00
  HS02004870           JUNCTION     0.09     2.10    11.39     0  02:10        2.10
  HS02004876           JUNCTION     0.13     2.26    11.29     0  02:14        2.26
  HS02004881           JUNCTION     0.08     2.15    11.18     0  02:14        2.15
  HS02004901           JUNCTION     0.22     1.42    11.24     0  02:08        1.42
  WS02001211           JUNCTION     0.63     0.81     5.64     0  02:17        0.81
  WS02001212           JUNCTION     0.37     0.57     5.63     0  02:17        0.57
  WS02001213           JUNCTION     0.60     0.86     5.63     0  02:17        0.86
  WS02003059           JUNCTION     0.66     0.93     5.62     0  02:15        0.93
  WS02003060           JUNCTION     0.39     0.68     5.61     0  02:16        0.68
  WS02003066           JUNCTION     0.23     0.45     6.01     0  02:14        0.45
  WS02003067           JUNCTION     0.56     0.89     6.21     0  02:14        0.89
  WS02003069           JUNCTION     0.43     0.77     5.36     0  02:16        0.77
  WS02003072           JUNCTION     0.49     0.81     5.18     0  02:16        0.81
  WS02003073           JUNCTION     0.29     0.51     4.58     0  02:17        0.51
  WS02004138           JUNCTION     0.13     0.14     7.39     0  00:33        0.14
  WS02004139           JUNCTION     0.57     0.74     5.65     0  02:17        0.74
  WS02004401           JUNCTION     0.77     2.27     8.27     0  02:40        2.27
  WS02004402           JUNCTION     0.79     2.23     8.19     0  02:40        2.23
  WS02004403           JUNCTION     0.80     2.16     8.09     0  02:40        2.16
  WS02004404           JUNCTION     0.86     2.15     8.00     0  02:40        2.15
  WS02004405           JUNCTION     0.85     2.05     7.90     0  02:40        2.05
  WS02004406           JUNCTION     0.85     1.75     7.58     0  02:40        1.75
  WS02004407           JUNCTION     0.26     0.90     7.21     0  02:13        0.90
  WS02004409           JUNCTION     0.54     1.81     7.58     0  02:14        1.81
  WS02004410           JUNCTION     0.55     1.72     7.44     0  02:14        1.72
  WS02004411           JUNCTION     0.55     1.20     6.88     0  02:14        1.18
  WS02004412           JUNCTION     0.56     1.12     6.76     0  02:14        1.10
  WS02004413           JUNCTION     0.69     1.15     6.62     0  02:14        1.14
  WS02006109           JUNCTION     0.95     2.64     9.26     0  02:08        2.64
  WS02006110           JUNCTION     0.90     2.76     9.34     0  02:14        2.76
  WS02006111           JUNCTION     0.38     1.92     8.63     0  02:40        1.92
  WS02006112           JUNCTION     0.98     2.61     8.50     0  02:14        2.61
  WS02006113           JUNCTION     0.48     1.96     8.85     0  02:40        1.96
  WS02006115           JUNCTION     0.68     2.29     8.43     0  02:40        2.29
  WS02006116           JUNCTION     0.76     2.32     8.36     0  02:40        2.32
  WS02006228           JUNCTION     1.00     3.03     9.68     0  02:13        3.03
  WS02006229           JUNCTION     1.00     3.25     9.94     0  02:13        3.25
  WS02006230           JUNCTION     0.96     2.65     9.39     0  02:05        2.65
  WS02006231           JUNCTION     0.69     2.22     9.35     0  02:10        2.22
  WS02006232           JUNCTION     0.80     2.18     9.22     0  02:05        2.18
  WS02006234           JUNCTION     0.71     1.96     9.12     0  02:03        1.96
  WS02006235           JUNCTION     0.73     2.00     9.16     0  02:40        1.97
  WS02006238           JUNCTION     0.75     2.09     9.24     0  03:15        1.94
  WS02006239           JUNCTION     0.71     2.03     9.24     0  02:14        2.03
  WS02006240           JUNCTION     0.66     1.80     9.09     0  03:15        1.75
  WS02006242           JUNCTION     0.72     1.55     8.82     0  01:48        1.55
  WS02006243           JUNCTION     0.61     1.48     8.90     0  01:50        1.48
  WS02006245           JUNCTION     0.60     1.44     8.93     0  01:52        1.44
  WS02006247           JUNCTION     0.61     1.33     8.83     0  01:52        1.33
  WS02006248           JUNCTION     0.56     1.10     8.69     0  01:52        1.10
  WS02006249           JUNCTION     0.58     1.09     8.69     0  01:52        1.09
  WS02006251           JUNCTION     0.65     2.21     9.88     0  02:14        2.21
  WS02006252           JUNCTION     0.45     1.50     9.74     0  00:00        1.50
  WS02006253           JUNCTION     0.70     3.52    11.16     0  02:14        3.52
  WS02006256           JUNCTION     1.06     2.35     9.28     0  00:00        2.35
  WS02006280           JUNCTION     0.22     1.83    10.10     0  02:14        1.83
  WS02006284           JUNCTION     0.48     2.01    10.41     0  02:14        2.01
  WS02006287           JUNCTION     0.22     1.89    10.84     0  02:14        1.89
  WSF200               JUNCTION     0.23     0.52     5.75     0  02:14        0.51
  YS02001580           JUNCTION     0.05     1.05     9.59     0  02:08        0.77
  YS02001583           JUNCTION     0.08     1.14     9.64     0  02:08        1.14
  YS02001586           JUNCTION     0.14     1.13     9.30     0  02:08        1.13
  YS02001590           JUNCTION     0.22     1.40     9.26     0  02:14        1.40
  YS02001593           JUNCTION     0.16     1.32     9.18     0  02:14        1.29
  YS02001596           JUNCTION     0.21     1.68     9.10     0  02:10        1.68
  YS02001600           JUNCTION     0.27     1.87     9.00     0  02:14        1.86
  YS02001601           JUNCTION     0.45     2.06     8.90     0  02:07        2.06
  YS02001602           JUNCTION     0.37     1.87     8.77     0  02:07        1.87
  YS02001605           JUNCTION     0.34     1.78     8.68     0  02:14        1.78
  YS02001607           JUNCTION     0.35     1.68     8.53     0  02:14        1.68
  YS02001610           JUNCTION     0.39     1.68     8.48     0  02:07        1.68
  YS02001613           JUNCTION     0.35     1.70     8.54     0  02:14        1.70
  YS02001616           JUNCTION     0.28     1.61     8.52     0  02:13        1.61
  YS02001619           JUNCTION     0.26     1.61     8.54     0  02:10        1.61
  YS02001622           JUNCTION     0.25     1.62     8.52     0  02:10        1.62
  YS02001625           JUNCTION     0.50     1.78     8.38     0  02:07        1.78
  YS02001629           JUNCTION     0.36     1.85     8.40     0  02:07        1.85
  YS02001633           JUNCTION     0.43     2.08     8.53     0  02:10        2.08
  YS02001641           JUNCTION     0.42     1.98     8.42     0  02:10        1.98
  YS02001644           JUNCTION     0.42     1.92     8.35     0  02:11        1.92
  YS02001647           JUNCTION     0.22     1.87     8.48     0  02:13        1.87
  YS02001649           JUNCTION     0.26     2.05     8.44     0  02:13        2.05
  YS02001652           JUNCTION     0.16     2.16     8.76     0  02:13        2.16
  YS02001655           JUNCTION     0.12     2.20     9.05     0  02:13        2.20
  YS02001658           JUNCTION     0.08     2.30     9.44     0  02:13        2.30
  YS02001661           JUNCTION     0.12     1.75     9.16     0  02:13        1.75
  YS02001664           JUNCTION     0.04     0.63     8.56     0  02:12        0.58
  YS02001745           JUNCTION     0.05     0.85     8.37     0  02:12        0.74
  YS02001748           JUNCTION     0.08     1.81     8.89     0  02:12        1.17
  YS02001751           JUNCTION     0.10     1.87     8.75     0  02:12        1.34
  YS02001754           JUNCTION     0.14     1.88     8.49     0  02:12        1.63
  YS02001757           JUNCTION     0.28     2.14     8.40     0  02:13        2.14
  YS02001759           JUNCTION     0.23     2.21     8.57     0  02:13        2.21
  YS02001762           JUNCTION     0.22     2.15     8.55     0  02:13        2.15
  YS02001765           JUNCTION     0.21     2.10     8.55     0  02:13        2.10
  YS02001767           JUNCTION     0.20     2.03     8.52     0  02:13        2.03
  YS02001770           JUNCTION     0.21     1.95     8.45     0  02:12        1.95
  YS02001774           JUNCTION     0.27     2.05     8.47     0  02:13        2.05
  YS02001779           JUNCTION     0.12     1.68     8.37     0  02:10        1.68
  YS02001783           JUNCTION     0.19     1.43     7.57     0  02:14        1.43
  YS02001784           JUNCTION     0.21     1.28     7.35     0  02:14        1.11
  YS02001786           JUNCTION     0.18     0.91     6.94     0  02:10        0.88
  YS02001788           JUNCTION     0.12     0.62     6.60     0  02:12        0.62
  YS02001790           JUNCTION     0.15     0.72     6.37     0  02:17        0.71
  YS02001791           JUNCTION     0.10     0.44     5.91     0  02:13        0.43
  YS02001793           JUNCTION     0.05     0.28     5.11     0  02:20        0.28
  YS02001882           JUNCTION     0.24     1.68     8.40     0  02:13        1.68
  YS02001884           JUNCTION     0.33     1.78     8.40     0  02:13        1.78
  YS02001887           JUNCTION     0.40     1.88     8.41     0  02:13        1.88
  YS02001890           JUNCTION     0.43     1.81     8.32     0  02:10        1.81
  YS02001895           JUNCTION     0.21     1.61     8.35     0  02:13        1.61
  YS02001898           JUNCTION     0.22     1.72     8.45     0  02:14        1.72
  YS02001901           JUNCTION     0.33     1.87     8.48     0  02:14        1.87
  YS02001904           JUNCTION     0.31     1.64     8.27     0  02:14        1.64
  YS02001907           JUNCTION     0.62     1.96     8.25     0  02:10        1.96
  YS02001910           JUNCTION     0.42     2.10     8.61     0  02:14        2.10
  YS02001915           JUNCTION     0.24     2.00     8.72     0  02:14        2.00
  YS02001918           JUNCTION     0.12     1.81     8.88     0  02:11        1.72
  YS02001920           JUNCTION     0.20     2.14     9.15     0  02:11        1.65
  YS02001923           JUNCTION     0.08     2.03     9.29     0  02:11        1.21
  YS02001926           JUNCTION     0.12     1.90     9.35     0  02:11        1.03
  YS02001929           JUNCTION     0.06     1.78     9.47     0  02:11        0.80
  YS02006553           JUNCTION     0.62     1.98     8.27     0  02:10        1.97
  YS02006556           JUNCTION     0.59     2.03     8.34     0  02:13        2.03
  YS02006558           JUNCTION     0.64     2.30     8.57     0  02:14        2.30
  YS02006561           JUNCTION     0.11     1.00     7.66     0  02:10        0.89
  YS02163301           JUNCTION     0.38     2.03     8.55     0  02:14        2.03
  YS02163601           JUNCTION     0.47     2.08     8.48     0  02:10        2.08
  YS02164001           JUNCTION     0.41     2.10     8.56     0  02:14        2.10
  YSB1154              JUNCTION     0.36     2.10    11.16     0  02:13        2.10
  YSB1171              JUNCTION     0.51     1.95    10.85     0  02:10        1.95
  YSB1174              JUNCTION     0.32     1.95    11.06     0  02:13        1.95
  YSB6556              JUNCTION     0.27     1.80    10.97     0  02:14        1.80
  CC-1                 OUTFALL      0.00     0.00     0.00     0  00:00        0.00
  CC-2                 OUTFALL      0.00     0.00     0.00     0  00:00        0.00
  JK-1                 OUTFALL      0.00     0.00     0.00     0  00:00        0.00
  JK-2                 OUTFALL      0.00     0.00     0.00     0  00:00        0.00
  WSC                  OUTFALL      0.29     0.51     1.18     0  02:17        0.51
  CC-storage           STORAGE      0.77     1.56     7.06     0  02:34        1.56
  JK-storage           STORAGE      1.38     4.22     5.02     0  02:20        4.16
  XR-storage           STORAGE      7.92     9.26     7.26     0  08:00        9.26
  
  
  *******************
  Node Inflow Summary
  *******************
  
  -------------------------------------------------------------------------------------------------
                                  Maximum  Maximum                  Lateral       Total        Flow
                                  Lateral    Total  Time of Max      Inflow      Inflow     Balance
                                   Inflow   Inflow   Occurrence      Volume      Volume       Error
  Node                 Type           LPS      LPS  days hr:min    10^6 ltr    10^6 ltr     Percent
  -------------------------------------------------------------------------------------------------
  HS02004478           JUNCTION      0.00  2286.39     0  02:13           0        7.01      -0.013
  HS02004479           JUNCTION      0.00   469.20     0  02:10           0       0.677       0.140
  HS02004480           JUNCTION      0.00  2123.10     0  02:09           0        5.29       0.051
  HS02004770           JUNCTION   1216.22  1216.22     0  02:14        1.89        2.11       0.149
  HS02004777           JUNCTION      0.03   751.38     0  02:08    0.000864        1.59       0.331
  HS02004785           JUNCTION      0.15   765.48     0  02:07     0.00432        1.59       0.030
  HS02004788           JUNCTION    443.38   859.87     0  02:08        0.75        2.33      -0.025
  HS02004792           JUNCTION   1461.40  2218.36     0  02:14        2.43        4.77       0.007
  HS02004799           JUNCTION    289.69  1745.96     0  02:09       0.422        4.66       0.056
  HS02004802           JUNCTION      0.00  1038.68     0  02:14           0        1.75       0.224
  HS02004807           JUNCTION    364.06  1033.09     0  02:14       0.517         1.8       0.230
  HS02004817           JUNCTION      0.60   668.44     0  02:14      0.0173        1.34       1.255
  HS02004824           JUNCTION    456.60   664.72     0  02:09       0.911        1.48       0.021
  HS02004830           JUNCTION      0.15   664.40     0  02:08     0.00432       0.726       0.145
  HS02004837           JUNCTION    333.90   863.79     0  02:09       0.673        1.02       0.032
  HS02004842           JUNCTION      0.00   863.73     0  02:09           0       0.653       2.003
  HS02004848           JUNCTION    410.26  1098.75     0  02:10       0.858        1.36      -0.007
  HS02004852           JUNCTION      0.00  1088.51     0  02:10           0        1.22      -0.024
  HS02004856           JUNCTION    147.21  1200.28     0  02:10       0.213        1.43       0.024
  HS02004862           JUNCTION    191.14  1224.72     0  02:10       0.367         1.8      -0.060
  HS02004870           JUNCTION    196.92  1313.35     0  02:10       0.283        2.08       0.006
  HS02004876           JUNCTION    191.81  1341.41     0  02:14       0.292        2.37       0.033
  HS02004881           JUNCTION    108.25  1454.00     0  02:14       0.149        2.52      -0.011
  HS02004901           JUNCTION    297.78   526.39     0  02:14       0.426       0.619       0.287
  WS02001211           JUNCTION      7.35   205.38     0  03:11       0.212        5.44       0.611
  WS02001212           JUNCTION      0.00   211.75     0  02:46           0        5.41       0.290
  WS02001213           JUNCTION      0.00   217.84     0  02:45           0        5.39       0.334
  WS02003059           JUNCTION      0.00   223.31     0  02:45           0        5.38       0.598
  WS02003060           JUNCTION     16.53  1484.34     0  02:15       0.476        15.6       0.095
  WS02003066           JUNCTION      0.00  1286.98     0  02:14           0        9.77       0.017
  WS02003067           JUNCTION      0.00  1292.86     0  02:14           0        9.78       0.046
  WS02003069           JUNCTION      0.32  1484.03     0  02:16     0.00922        15.6       0.102
  WS02003072           JUNCTION      0.00  1483.99     0  02:16           0        15.6       0.137
  WS02003073           JUNCTION      1.82  1486.09     0  02:16      0.0524        15.6       0.143
  WS02004138           JUNCTION      0.00   380.00     0  00:00           0        5.25       0.054
  WS02004139           JUNCTION      0.32   190.32     0  00:33     0.00924        5.26       0.509
  WS02004401           JUNCTION      0.00  1291.62     0  02:13           0        9.89       0.110
  WS02004402           JUNCTION      0.00  1293.17     0  02:13           0        9.88       0.111
  WS02004403           JUNCTION      0.00  1293.09     0  02:13           0        9.87       0.108
  WS02004404           JUNCTION      0.16  1294.01     0  02:13     0.00467        9.86       0.097
  WS02004405           JUNCTION      0.04  1293.64     0  02:13      0.0011        9.85       0.126
  WS02004406           JUNCTION      0.00  1296.04     0  02:13           0        9.84       0.221
  WS02004407           JUNCTION      0.00  1296.88     0  02:13           0        9.82       0.016
  WS02004409           JUNCTION      0.00  1287.85     0  02:14           0        9.82       0.038
  WS02004410           JUNCTION      0.00  1287.51     0  02:14           0        9.81       0.055
  WS02004411           JUNCTION      0.00  1286.74     0  02:14           0        9.81       0.067
  WS02004412           JUNCTION      0.00  1285.46     0  02:14           0         9.8       0.085
  WS02004413           JUNCTION      0.00  1295.14     0  02:14           0        9.79       0.154
  WS02006109           JUNCTION      1.23  1283.04     0  02:13      0.0354        9.73       0.098
  WS02006110           JUNCTION      0.00  1123.30     0  02:25           0        9.58       0.083
  WS02006111           JUNCTION      0.00  1123.41     0  02:25           0        9.57       0.004
  WS02006112           JUNCTION    241.26  1285.84     0  02:13        0.35        9.92       0.183
  WS02006113           JUNCTION      0.00  1123.33     0  02:25           0        9.57       0.031
  WS02006115           JUNCTION      0.00  1285.63     0  02:13           0         9.9       0.076
  WS02006116           JUNCTION      0.00  1289.56     0  02:13           0        9.89       0.031
  WS02006228           JUNCTION      0.00  1281.23     0  02:13           0         9.7       0.041
  WS02006229           JUNCTION      0.00  2290.73     0  02:13           0        11.4       0.069
  WS02006230           JUNCTION     10.28  1021.05     0  02:14       0.296         6.1       0.160
  WS02006231           JUNCTION      0.00   563.14     0  04:00           0        5.17      -0.090
  WS02006232           JUNCTION      0.00   561.93     0  04:00           0        5.17       0.121
  WS02006234           JUNCTION      0.00   559.31     0  04:00           0        5.16      -0.165
  WS02006235           JUNCTION      0.00   553.13     0  04:25           0        5.22       0.179
  WS02006238           JUNCTION      0.00   428.88     0  04:26           0        4.82      -0.171
  WS02006239           JUNCTION      0.00   428.95     0  04:05           0        4.79      -0.165
  WS02006240           JUNCTION      0.00   426.89     0  04:05           0        4.77      -0.036
  WS02006242           JUNCTION      0.00   427.43     0  04:05           0        4.76       0.009
  WS02006243           JUNCTION      0.00   427.98     0  04:05           0        4.47      -0.148
  WS02006245           JUNCTION      0.00   428.85     0  04:05           0        4.48       0.268
  WS02006247           JUNCTION      0.00   428.20     0  04:05           0        4.48       0.032
  WS02006248           JUNCTION      0.00   427.26     0  04:05           0        4.69      -0.025
  WS02006249           JUNCTION      0.00  1342.91     0  02:11           0         7.2       0.138
  WS02006251           JUNCTION      0.08  1496.59     0  02:14     0.00222        7.29      -0.012
  WS02006252           JUNCTION      0.00   560.82     0  02:14           0        4.96      -0.251
  WS02006253           JUNCTION     28.95  1490.19     0  02:14      0.0362        2.62       0.052
  WS02006256           JUNCTION      0.00   300.00     0  00:00           0        1.29      -1.350
  WS02006280           JUNCTION      0.00  2288.91     0  02:13           0        6.99       0.011
  WS02006284           JUNCTION      0.10  2288.85     0  02:13     0.00275        6.99       0.001
  WS02006287           JUNCTION      0.00  2287.34     0  02:13           0        6.99       0.012
  WSF200               JUNCTION      0.00  1287.00     0  02:14           0        9.77       0.009
  YS02001580           JUNCTION      0.00   102.19     0  02:07           0     0.00407      -4.423
  YS02001583           JUNCTION      0.00   175.78     0  02:07           0      0.0151      -5.249
  YS02001586           JUNCTION    518.38   518.41     0  02:15        1.17        1.18       0.112
  YS02001590           JUNCTION      0.00   323.23     0  02:14           0        1.05      -0.021
  YS02001593           JUNCTION      0.00   323.69     0  02:14           0        1.05       0.025
  YS02001596           JUNCTION      0.00   318.01     0  02:14           0        1.05       0.005
  YS02001600           JUNCTION      0.00   318.45     0  02:14           0        1.05       0.016
  YS02001601           JUNCTION    962.30  1280.38     0  02:14        1.66        2.71       0.034
  YS02001602           JUNCTION      0.00   520.00     0  02:07           0        1.91       0.028
  YS02001605           JUNCTION      0.00   520.04     0  02:07           0        1.83       0.038
  YS02001607           JUNCTION      0.00   519.93     0  02:07           0        1.83       0.113
  YS02001610           JUNCTION      0.00   518.79     0  02:07           0        1.85       0.130
  YS02001613           JUNCTION      0.00   520.32     0  02:07           0        1.58       0.120
  YS02001616           JUNCTION      0.00   523.60     0  02:07           0        1.58       0.026
  YS02001619           JUNCTION    924.02   925.56     0  02:09        1.87        3.43       0.006
  YS02001622           JUNCTION      0.00   923.25     0  02:09           0        3.41       0.008
  YS02001625           JUNCTION      0.00  1033.71     0  02:15           0        3.45       0.262
  YS02001629           JUNCTION      0.00   922.49     0  02:09           0        2.92       0.015
  YS02001633           JUNCTION    722.50  1366.25     0  02:09        1.21        4.07       0.088
  YS02001641           JUNCTION      0.00  1379.75     0  02:10           0        4.02       0.073
  YS02001644           JUNCTION    648.55  1801.35     0  02:10        1.04        5.05       0.070
  YS02001647           JUNCTION      0.00  1806.36     0  02:10           0        4.96       0.007
  YS02001649           JUNCTION      0.00  2019.32     0  02:09           0         5.9       0.007
  YS02001652           JUNCTION      0.00   788.08     0  02:13           0       0.941      -0.132
  YS02001655           JUNCTION      0.15   788.19     0  02:13     0.00443       0.941       0.044
  YS02001658           JUNCTION      0.00   800.99     0  02:14           0       0.936      -0.029
  YS02001661           JUNCTION      0.00   774.72     0  02:12           0       0.936       0.010
  YS02001664           JUNCTION    633.93   633.93     0  02:14       0.936       0.936      -0.014
  YS02001745           JUNCTION    412.87   495.34     0  02:12       0.577       0.578       0.252
  YS02001748           JUNCTION      0.04   575.35     0  02:12      0.0013       0.579      -0.364
  YS02001751           JUNCTION      0.01   509.14     0  02:12    0.000317       0.587       0.143
  YS02001754           JUNCTION      0.26   509.20     0  02:13     0.00749       0.601      -0.237
  YS02001757           JUNCTION      0.00  3291.46     0  02:13           0        8.51       0.036
  YS02001759           JUNCTION    572.20  1278.78     0  02:14       0.794        2.01      -0.004
  YS02001762           JUNCTION      0.00   741.06     0  02:15           0        1.22       0.006
  YS02001765           JUNCTION      0.00   741.36     0  02:15           0        1.22       0.024
  YS02001767           JUNCTION      0.54   741.22     0  02:15      0.0154        1.22       0.012
  YS02001770           JUNCTION    802.87   802.87     0  02:14        1.22        1.26       0.010
  YS02001774           JUNCTION      0.00   385.52     0  02:10           0      0.0772       1.297
  YS02001779           JUNCTION      0.01   390.44     0  02:10    0.000144      0.0344      -2.199
  YS02001783           JUNCTION      0.00  1163.83     0  02:13           0        3.26       0.007
  YS02001784           JUNCTION      1.06  1164.11     0  02:13      0.0305        3.29       0.018
  YS02001786           JUNCTION      0.06  1164.91     0  02:13     0.00162        3.29       0.016
  YS02001788           JUNCTION      0.07  1166.01     0  02:13     0.00204         3.3       0.009
  YS02001790           JUNCTION      0.15  1169.71     0  02:12     0.00446         3.3       0.032
  YS02001791           JUNCTION      0.00  1286.19     0  02:13           0         3.3      -0.030
  YS02001793           JUNCTION      0.00  1238.27     0  02:13           0         3.3       0.007
  YS02001882           JUNCTION      0.00    48.08     0  02:09           0      0.0123       4.381
  YS02001884           JUNCTION      0.00    74.41     0  02:09           0      0.0481       5.704
  YS02001887           JUNCTION    629.85   637.46     0  02:13       0.841       0.874       0.522
  YS02001890           JUNCTION      0.00   638.48     0  02:13           0       0.833       0.614
  YS02001895           JUNCTION      0.00   526.48     0  02:14           0       0.805       0.171
  YS02001898           JUNCTION      0.00   515.21     0  02:15           0       0.803       0.052
  YS02001901           JUNCTION      0.00   515.77     0  02:15           0       0.806       0.391
  YS02001904           JUNCTION      0.00   519.14     0  02:14           0        0.81       0.362
  YS02001907           JUNCTION      0.00  1576.07     0  02:15           0        2.65       0.681
  YS02001910           JUNCTION      0.00  1066.58     0  02:12           0        1.85       0.388
  YS02001915           JUNCTION    702.51  1065.76     0  02:12        1.16        1.89       0.085
  YS02001918           JUNCTION      0.00   443.02     0  02:12           0       0.763      -0.020
  YS02001920           JUNCTION      2.87   441.91     0  02:12      0.0827       0.746       0.109
  YS02001923           JUNCTION      0.04   420.76     0  02:10     0.00109       0.647      -0.104
  YS02001926           JUNCTION      0.05   650.27     0  02:11      0.0015       0.627      -0.068
  YS02001929           JUNCTION    336.34   461.40     0  02:11       0.611       0.613      -0.014
  YS02006553           JUNCTION      0.00   796.14     0  02:26           0        2.08       0.581
  YS02006556           JUNCTION      0.00   797.47     0  02:26           0        2.09       0.386
  YS02006558           JUNCTION    822.78  1164.71     0  02:10        1.23        3.29       0.108
  YS02006561           JUNCTION      0.00  1164.33     0  02:10           0        3.26       0.002
  YS02163301           JUNCTION      0.00   919.93     0  02:09           0        2.91       0.059
  YS02163601           JUNCTION      0.11  1364.83     0  02:09     0.00317        4.02       0.124
  YS02164001           JUNCTION      0.00  1363.26     0  02:09           0        4.02       0.067
  YSB1154              JUNCTION    331.21   331.21     0  02:14       0.505       0.506       0.293
  YSB1171              JUNCTION      0.00   666.92     0  02:14           0         0.9       0.723
  YSB1174              JUNCTION    296.14   296.14     0  02:13       0.383       0.384       0.337
  YSB6556              JUNCTION      0.00   333.84     0  02:14           0       0.506       0.240
  CC-1                 OUTFALL       0.00   683.00     0  00:00           0        2.73       0.000
  CC-2                 OUTFALL       0.00   683.00     0  00:00           0         1.7       0.000
  JK-1                 OUTFALL       0.00  1000.00     0  00:00           0        1.41       0.000
  JK-2                 OUTFALL       0.00  1000.00     0  00:00           0       0.714       0.000
  WSC                  OUTFALL       0.00  1486.73     0  02:17           0        15.6       0.000
  CC-storage           STORAGE       0.00  3302.02     0  02:13           0        10.7      -0.268
  JK-storage           STORAGE       0.00  1263.26     0  02:15           0        3.45      -0.451
  XR-storage           STORAGE     200.00   200.00     0  00:00        5.76        6.36       0.001
  
  
  **********************
  Node Surcharge Summary
  **********************
  
  Surcharging occurs when water rises above the top of the highest conduit.
  ---------------------------------------------------------------------
                                               Max. Height   Min. Depth
                                   Hours       Above Crown    Below Rim
  Node                 Type      Surcharged         Meters       Meters
  ---------------------------------------------------------------------
  HS02004478           JUNCTION        0.34          0.940        0.000
  HS02004479           JUNCTION        0.45          0.884        0.166
  HS02004480           JUNCTION        0.48          1.055        0.045
  HS02004770           JUNCTION        0.40          0.720        0.000
  HS02004777           JUNCTION        0.41          0.780        0.000
  HS02004785           JUNCTION        0.36          0.790        0.000
  HS02004788           JUNCTION        0.35          0.720        0.000
  HS02004792           JUNCTION        0.45          0.900        0.000
  HS02004799           JUNCTION        0.56          1.060        0.000
  HS02004802           JUNCTION        0.49          1.210        0.000
  HS02004807           JUNCTION        0.48          1.220        0.000
  HS02004817           JUNCTION        0.97          1.740        0.000
  HS02004824           JUNCTION        0.36          1.310        0.000
  HS02004830           JUNCTION        0.33          1.330        0.000
  HS02004837           JUNCTION        0.30          1.340        0.000
  HS02004842           JUNCTION        0.42          1.520        0.000
  HS02004848           JUNCTION        0.27          1.370        0.000
  HS02004852           JUNCTION        0.29          1.420        0.000
  HS02004856           JUNCTION        0.28          1.300        0.000
  HS02004862           JUNCTION        0.31          1.300        0.000
  HS02004870           JUNCTION        0.32          1.400        0.000
  HS02004876           JUNCTION        0.39          1.560        0.000
  HS02004881           JUNCTION        0.37          1.450        0.000
  HS02004901           JUNCTION        0.41          0.720        0.000
  WS02004401           JUNCTION        1.42          1.272        0.388
  WS02004402           JUNCTION        1.47          1.233        0.507
  WS02004403           JUNCTION        1.48          1.157        0.873
  WS02004404           JUNCTION        1.59          1.147        1.633
  WS02004405           JUNCTION        1.56          1.053        1.747
  WS02004406           JUNCTION        1.54          0.749        1.701
  WS02004409           JUNCTION        0.81          0.809        1.551
  WS02004410           JUNCTION        0.73          0.716        1.824
  WS02004411           JUNCTION        0.67          0.201        2.329
  WS02004412           JUNCTION        0.59          0.125        2.185
  WS02004413           JUNCTION        1.11          0.155        2.045
  WS02006109           JUNCTION        2.92          1.820        0.000
  WS02006110           JUNCTION        1.87          1.850        0.000
  WS02006111           JUNCTION        1.01          1.114        0.756
  WS02006112           JUNCTION        2.14          1.613        0.067
  WS02006113           JUNCTION        1.02          1.157        0.773
  WS02006115           JUNCTION        1.27          1.279        0.971
  WS02006116           JUNCTION        1.28          1.263        1.027
  WS02006228           JUNCTION        2.90          2.200        0.000
  WS02006229           JUNCTION        0.70          1.070        0.000
  WS02006230           JUNCTION        1.68          1.570        0.000
  WS02006231           JUNCTION        1.92          1.512        0.018
  WS02006232           JUNCTION        2.87          1.480        0.000
  WS02006234           JUNCTION        2.75          1.240        0.000
  WS02006235           JUNCTION        2.78          1.290        0.000
  WS02006238           JUNCTION        2.82          1.373        0.057
  WS02006239           JUNCTION        2.78          1.290        0.000
  WS02006240           JUNCTION        2.78          1.092        0.298
  WS02006242           JUNCTION        2.84          0.820        0.000
  WS02006243           JUNCTION        2.77          0.770        0.000
  WS02006245           JUNCTION        2.76          0.734        0.116
  WS02006247           JUNCTION        2.76          0.623        0.137
  WS02006248           JUNCTION        2.73          0.380        0.000
  WS02006249           JUNCTION        2.73          0.390        0.000
  WS02006251           JUNCTION        1.98          1.180        0.000
  WS02006252           JUNCTION        3.17          1.100        0.000
  WS02006253           JUNCTION        2.10          2.480        0.000
  WS02006256           JUNCTION        7.34          2.050        0.000
  WS02006280           JUNCTION        0.58          0.780        0.000
  WS02006284           JUNCTION        0.51          0.732        0.068
  WS02006287           JUNCTION        0.43          0.890        0.000
  YS02001580           JUNCTION        0.41          0.450        0.000
  YS02001583           JUNCTION        0.42          0.500        0.000
  YS02001586           JUNCTION        0.54          0.510        0.000
  YS02001590           JUNCTION        0.60          0.750        0.000
  YS02001593           JUNCTION        0.60          0.699        0.141
  YS02001596           JUNCTION        0.70          0.949        0.121
  YS02001600           JUNCTION        0.83          1.190        0.000
  YS02001601           JUNCTION        1.17          1.440        0.000
  YS02001602           JUNCTION        1.06          1.270        0.000
  YS02001605           JUNCTION        1.01          1.180        0.000
  YS02001607           JUNCTION        0.57          0.680        0.000
  YS02001610           JUNCTION        0.60          0.680        0.000
  YS02001613           JUNCTION        0.57          0.700        0.000
  YS02001616           JUNCTION        0.53          0.610        0.000
  YS02001619           JUNCTION        0.52          0.610        0.000
  YS02001622           JUNCTION        0.51          0.620        0.000
  YS02001625           JUNCTION        0.68          0.780        0.000
  YS02001629           JUNCTION        0.48          0.470        0.000
  YS02001633           JUNCTION        0.70          1.060        0.000
  YS02001641           JUNCTION        0.63          0.978        0.122
  YS02001644           JUNCTION        0.61          0.920        0.000
  YS02001647           JUNCTION        0.43          0.875        0.025
  YS02001649           JUNCTION        0.52          1.050        0.000
  YS02001652           JUNCTION        0.36          1.130        0.000
  YS02001655           JUNCTION        0.24          1.200        0.000
  YS02001658           JUNCTION        0.11          1.300        0.000
  YS02001661           JUNCTION        0.01          0.682        0.708
  YS02001748           JUNCTION        0.04          0.728        0.462
  YS02001751           JUNCTION        0.16          0.867        0.333
  YS02001754           JUNCTION        0.28          0.829        0.321
  YS02001757           JUNCTION        0.57          1.138        0.072
  YS02001759           JUNCTION        0.49          1.210        0.000
  YS02001762           JUNCTION        0.46          1.150        0.000
  YS02001765           JUNCTION        0.42          1.100        0.000
  YS02001767           JUNCTION        0.39          1.030        0.000
  YS02001770           JUNCTION        0.36          0.920        0.000
  YS02001774           JUNCTION        0.44          1.050        0.000
  YS02001779           JUNCTION        0.28          0.680        0.000
  YS02001783           JUNCTION        0.40          0.630        0.970
  YS02001784           JUNCTION        0.38          0.479        1.011
  YS02001786           JUNCTION        0.28          0.113        1.317
  YS02001882           JUNCTION        0.35          0.680        0.150
  YS02001884           JUNCTION        0.36          0.724        0.146
  YS02001887           JUNCTION        0.39          0.826        0.124
  YS02001890           JUNCTION        0.40          0.760        0.000
  YS02001895           JUNCTION        0.34          0.605        0.145
  YS02001898           JUNCTION        0.33          0.688        0.052
  YS02001901           JUNCTION        0.38          0.870        0.000
  YS02001904           JUNCTION        0.37          0.640        0.210
  YS02001907           JUNCTION        0.59          0.950        0.000
  YS02001910           JUNCTION        0.42          1.100        0.000
  YS02001915           JUNCTION        0.35          1.000        0.000
  YS02001918           JUNCTION        0.27          0.810        0.000
  YS02001920           JUNCTION        0.29          1.140        0.000
  YS02001923           JUNCTION        0.01          0.820        0.000
  YS02001926           JUNCTION        0.02          0.900        0.000
  YS02001929           JUNCTION        0.01          0.780        0.000
  YS02006553           JUNCTION        0.60          0.983        0.207
  YS02006556           JUNCTION        0.50          0.987        0.363
  YS02006558           JUNCTION        0.49          1.201        0.199
  YS02006561           JUNCTION        0.24          0.198        0.952
  YS02163301           JUNCTION        0.68          1.030        0.000
  YS02163601           JUNCTION        0.72          1.080        0.000
  YS02164001           JUNCTION        0.64          1.100        0.000
  YSB1154              JUNCTION        0.65          1.400        0.000
  YSB1171              JUNCTION        0.66          1.100        0.000
  YSB1174              JUNCTION        0.59          1.250        0.000
  YSB6556              JUNCTION        0.54          1.100        0.000
  
  
  *********************
  Node Flooding Summary
  *********************
  
  Flooding refers to all water that overflows a node, whether it ponds or not.
  --------------------------------------------------------------------------
                                                             Total   Maximum
                                 Maximum   Time of Max       Flood    Ponded
                        Hours       Rate    Occurrence      Volume     Depth
  Node                 Flooded       LPS   days hr:min    10^6 ltr    Meters
  --------------------------------------------------------------------------
  HS02004478              0.01      0.60      0  02:14       0.000     0.000
  HS02004770              0.24    684.01      0  02:13       0.329     0.000
  HS02004777              0.01     68.02      0  02:08       0.001     0.000
  HS02004785              0.01    119.96      0  02:08       0.000     0.000
  HS02004788              0.01    232.10      0  02:08       0.001     0.000
  HS02004792              0.24   1074.62      0  02:14       0.533     0.000
  HS02004799              0.10    174.34      0  02:13       0.029     0.000
  HS02004802              0.01      0.28      0  02:14       0.000     0.000
  HS02004807              0.01     21.52      0  02:14       0.000     0.000
  HS02004817              0.01      0.94      0  02:14       0.000     0.000
  HS02004824              0.01      1.47      0  02:14       0.000     0.000
  HS02004830              0.01      1.15      0  02:14       0.000     0.000
  HS02004837              0.01     39.43      0  02:10       0.000     0.000
  HS02004842              0.01    102.65      0  02:10       0.001     0.000
  HS02004848              0.01     43.58      0  02:10       0.000     0.000
  HS02004852              0.01      1.14      0  02:14       0.000     0.000
  HS02004856              0.01    444.34      0  02:10       0.003     0.000
  HS02004862              0.01     42.56      0  02:10       0.000     0.000
  HS02004870              0.01    242.26      0  02:10       0.000     0.000
  HS02004876              0.01      0.98      0  02:14       0.000     0.000
  HS02004881              0.01      0.50      0  02:14       0.000     0.000
  HS02004901              0.30    526.39      0  02:14       0.401     0.000
  WS02006109              0.29    244.44      0  02:13       0.144     0.000
  WS02006110              0.01      0.26      0  02:14       0.000     0.000
  WS02006228              0.01     17.98      0  02:14       0.000     0.000
  WS02006229              0.01      0.92      0  02:13       0.000     0.000
  WS02006230              0.52    568.83      0  02:14       0.660     0.000
  WS02006232              0.13      7.82      0  02:14       0.000     0.000
  WS02006234              0.58    129.03      0  02:10       0.203     0.000
  WS02006235              0.01     17.19      0  02:40       0.000     0.000
  WS02006239              0.01      0.43      0  02:14       0.000     0.000
  WS02006242              0.65    137.66      0  02:37       0.290     0.000
  WS02006243              0.01     29.76      0  01:50       0.000     0.000
  WS02006248              1.05    339.57      0  02:05       0.973     0.000
  WS02006249              1.75   1281.71      0  02:11       3.253     0.000
  WS02006251              0.01      0.53      0  02:14       0.000     0.000
  WS02006252              0.33    559.47      0  02:14       0.305     0.000
  WS02006253              0.01      0.67      0  02:14       0.000     0.000
  WS02006256              1.19    294.19      0  02:30       0.689     0.000
  WS02006280              0.01      1.47      0  02:14       0.000     0.000
  WS02006287              0.01      1.34      0  02:14       0.000     0.000
  YS02001580              0.01     81.89      0  02:08       0.000     0.000
  YS02001583              0.01    105.48      0  02:08       0.000     0.000
  YS02001586              0.31    200.99      0  02:15       0.121     0.000
  YS02001590              0.01      0.28      0  02:14       0.000     0.000
  YS02001600              0.01      0.60      0  02:14       0.000     0.000
  YS02001601              0.47    882.34      0  02:14       0.802     0.000
  YS02001602              0.37     62.05      0  02:13       0.075     0.000
  YS02001605              0.01      0.31      0  02:14       0.000     0.000
  YS02001607              0.01      0.16      0  02:14       0.000     0.000
  YS02001610              0.32    411.62      0  02:16       0.282     0.000
  YS02001613              0.01     66.75      0  02:14       0.000     0.000
  YS02001616              0.01      5.31      0  02:14       0.000     0.000
  YS02001619              0.01      0.94      0  02:14       0.000     0.000
  YS02001622              0.01      0.69      0  02:10       0.000     0.000
  YS02001625              0.30   1033.61      0  02:15       0.568     0.000
  YS02001629              0.06    138.40      0  02:13       0.018     0.000
  YS02001633              0.01      1.35      0  02:10       0.000     0.000
  YS02001644              0.09    494.42      0  02:13       0.083     0.000
  YS02001649              0.01     28.74      0  02:13       0.000     0.000
  YS02001652              0.01     15.54      0  02:13       0.000     0.000
  YS02001655              0.01     35.42      0  02:13       0.000     0.000
  YS02001658              0.01     36.50      0  02:13       0.000     0.000
  YS02001759              0.01      1.44      0  02:13       0.000     0.000
  YS02001762              0.01      1.85      0  02:13       0.000     0.000
  YS02001765              0.01      1.46      0  02:13       0.000     0.000
  YS02001767              0.01      0.70      0  02:13       0.000     0.000
  YS02001770              0.01     18.98      0  02:14       0.000     0.000
  YS02001774              0.01      1.04      0  02:13       0.000     0.000
  YS02001779              0.06    327.88      0  02:10       0.018     0.000
  YS02001890              0.09    133.60      0  02:13       0.023     0.000
  YS02001901              0.01      0.73      0  02:14       0.000     0.000
  YS02001907              0.22   1200.50      0  02:15       0.561     0.000
  YS02001910              0.01      0.56      0  02:14       0.000     0.000
  YS02001915              0.01      0.05      0  02:14       0.000     0.000
  YS02001918              0.01    213.66      0  02:11       0.003     0.000
  YS02001920              0.01     50.72      0  02:11       0.000     0.000
  YS02001923              0.01    151.75      0  02:11       0.001     0.000
  YS02001926              0.01    163.80      0  02:11       0.001     0.000
  YS02001929              0.01     82.19      0  02:11       0.000     0.000
  YS02163301              0.01      0.85      0  02:14       0.000     0.000
  YS02163601              0.01      1.85      0  02:10       0.000     0.000
  YS02164001              0.01      0.61      0  02:14       0.000     0.000
  YSB1154                 0.01      0.23      0  02:13       0.000     0.000
  YSB1171                 0.17    666.36      0  02:14       0.227     0.000
  YSB1174                 0.01      0.33      0  02:13       0.000     0.000
  YSB6556                 0.01      0.22      0  02:14       0.000     0.000
  
  
  **********************
  Storage Volume Summary
  **********************
  
  --------------------------------------------------------------------------------------------------
                         Average     Avg  Evap Exfil       Maximum     Max    Time of Max    Maximum
                          Volume    Pcnt  Pcnt  Pcnt        Volume    Pcnt     Occurrence    Outflow
  Storage Unit           1000 m3    Full  Loss  Loss       1000 m3    Full    days hr:min        LPS
  --------------------------------------------------------------------------------------------------
  CC-storage               2.158      34     0     0         4.342      68       0  02:34    1783.53
  JK-storage               0.069      24     0     0         0.212      73       0  02:20    2300.00
  XR-storage               0.950      66     0     0         1.111      77       0  08:00     380.00
  
  
  ***********************
  Outfall Loading Summary
  ***********************
  
  -----------------------------------------------------------
                         Flow       Avg       Max       Total
                         Freq      Flow      Flow      Volume
  Outfall Node           Pcnt       LPS       LPS    10^6 ltr
  -----------------------------------------------------------
  CC-1                  15.81    683.00    683.00       2.726
  CC-2                  10.07    683.00    683.00       1.705
  JK-1                   5.81   1000.00   1000.00       1.411
  JK-2                   2.90   1000.00   1000.00       0.714
  WSC                   99.96    605.48   1486.73      15.575
  -----------------------------------------------------------
  System                26.91   3971.48   4821.94      22.131
  
  
  ********************
  Link Flow Summary
  ********************
  
  -----------------------------------------------------------------------------
                                 Maximum  Time of Max   Maximum    Max/    Max/
                                  |Flow|   Occurrence   |Veloc|    Full    Full
  Link                 Type          LPS  days hr:min     m/sec    Flow   Depth
  -----------------------------------------------------------------------------
  1                    CONDUIT   1486.73     0  02:17      3.69    0.52    0.51
  HS02004478WS02006287 CONDUIT   2287.34     0  02:13      2.58    0.64    1.00
  HS02004479HS02004480 CONDUIT    466.05     0  02:10      0.67    0.45    1.00
  HS02004480HS02004478 CONDUIT   2125.44     0  02:09      3.04    8.95    1.00
  HS02004770HS02004777 CONDUIT    751.35     0  02:08      1.07    1.37    1.00
  HS02004777HS02004785 CONDUIT    765.33     0  02:07      1.15    0.94    1.00
  HS02004785HS02004788 CONDUIT    637.48     0  02:08      1.35    4.81    1.00
  HS02004788HS02004792 CONDUIT    808.73     0  02:26      1.44    0.54    1.00
  HS02004792HS02004799 CONDUIT   1571.68     0  02:09      2.25    0.96    1.00
  HS02004799HS02004480 CONDUIT   1744.42     0  02:09      2.49    2.20    1.00
  HS02004802HS02004478 CONDUIT   1040.44     0  02:14      1.49    0.92    1.00
  HS02004807HS02004802 CONDUIT   1038.68     0  02:14      1.48    1.98    1.00
  HS02004817HS02004807 CONDUIT    673.20     0  02:14      0.96    0.40    1.00
  HS02004817HS02004824 CONDUIT    667.84     0  02:14      0.95    0.30    1.00
  HS02004824HS02004830 CONDUIT    664.25     0  02:08      0.97    0.87    1.00
  HS02004830HS02004837 CONDUIT    669.37     0  02:09      1.04    0.67    1.00
  HS02004837HS02004842 CONDUIT    863.73     0  02:09      1.23    0.52    1.00
  HS02004842HS02004848 CONDUIT    863.44     0  02:09      1.37    0.50    1.00
  HS02004848HS02004852 CONDUIT   1088.51     0  02:10      1.63    1.23    1.00
  HS02004852HS02004856 CONDUIT   1091.20     0  02:10      1.56    1.25    1.00
  HS02004856HS02004862 CONDUIT   1097.10     0  02:10      1.71    1.09    1.00
  HS02004862HS02004870 CONDUIT   1170.45     0  02:10      1.82    1.26    1.00
  HS02004870HS02004876 CONDUIT   1193.85     0  02:11      1.71    0.79    1.00
  HS02004876HS02004881 CONDUIT   1347.69     0  02:14      2.11   14.33    1.00
  HS02004881HS02006253 CONDUIT   1463.11     0  02:14      2.09    0.29    1.00
  HS02004901HS02004770 CONDUIT    265.59     0  02:22      0.38    1.00    1.00
  WS02001211WS02001212 CONDUIT    211.75     0  02:46      0.54    0.16    0.69
  WS02001212WS02001213 CONDUIT    217.84     0  02:45      1.04    0.34    0.56
  WS02001213WS02003059 CONDUIT    223.31     0  02:45      0.47    0.37    0.89
  WS02003059WS02003060 CONDUIT    229.76     0  02:46      0.66    0.15    0.81
  WS02003060WS02003069 CONDUIT   1483.71     0  02:16      2.08    0.58    0.60
  WS02003066WSF200     CONDUIT   1287.00     0  02:14      3.25    0.22    0.38
  WS02003067WS02003066 CONDUIT   1286.98     0  02:14      1.99    0.41    0.56
  WS02003069WS02003072 CONDUIT   1483.99     0  02:16      1.88    0.71    0.66
  WS02003072WS02003073 CONDUIT   1484.27     0  02:16      2.04    3.21    0.61
  WS02004138WS02004139 CONDUIT    190.00     0  00:33      2.15    0.04    0.41
  WS02004139WS02001211 CONDUIT    198.03     0  03:11      0.54    0.25    0.60
  WS02004401WS02004402 CONDUIT   1293.17     0  02:13      1.65    1.55    1.00
  WS02004402WS02004403 CONDUIT   1293.09     0  02:13      1.65    1.86    1.00
  WS02004403WS02004404 CONDUIT   1293.84     0  02:13      1.65    0.94    1.00
  WS02004404WS02004405 CONDUIT   1293.60     0  02:13      1.65   12.67    1.00
  WS02004405WS02004406 CONDUIT   1296.04     0  02:13      1.65    2.56    1.00
  WS02004406WS02004407 CONDUIT   1296.88     0  02:13      1.70    0.58    0.95
  WS02004407WS02004409 CONDUIT   1287.85     0  02:14      1.75    0.46    0.95
  WS02004409WS02004410 CONDUIT   1287.51     0  02:14      1.64    1.67    1.00
  WS02004410WS02004411 CONDUIT   1286.74     0  02:14      1.64    1.76    1.00
  WS02004411WS02004412 CONDUIT   1285.46     0  02:14      1.64    1.83    1.00
  WS02004412WS02004413 CONDUIT   1295.14     0  02:14      1.65    0.87    1.00
  WS02004413WS02003067 CONDUIT   1292.86     0  02:14      2.00    0.55    0.77
  WS02006109WS02006110 CONDUIT   1123.30     0  02:25      2.23    2.16    1.00
  WS02006110WS02006113 CONDUIT   1123.33     0  02:25      2.23    1.02    1.00
  WS02006111WS02006112 CONDUIT   1123.73     0  02:25      2.24    0.53    1.00
  WS02006112WS02006115 CONDUIT   1285.63     0  02:13      1.64    0.76    1.00
  WS02006113WS02006111 CONDUIT   1123.41     0  02:25      2.66    1.35    1.00
  WS02006115WS02006116 CONDUIT   1289.56     0  02:13      1.64    1.66    1.00
  WS02006116WS02004401 CONDUIT   1291.62     0  02:13      1.64    1.78    1.00
  WS02006228WS02006109 CONDUIT   1281.81     0  02:13      2.55    5.60    1.00
  WS02006229WS02006228 CONDUIT   1281.23     0  02:13      2.55    4.24    1.00
  WS02006230WS02006229 CONDUIT   1010.77     0  02:14      2.63   22.49    1.00
  WS02006231WS02006230 CONDUIT    566.69     0  04:05      1.52    8.60    1.00
  WS02006232WS02006231 CONDUIT    563.14     0  04:00      1.46    1.18    1.00
  WS02006234WS02006232 CONDUIT    561.93     0  04:00      1.46    1.14    1.00
  WS02006235WS02006234 CONDUIT    559.31     0  04:00      1.45    5.90    1.00
  WS02006238WS02006235 CONDUIT    429.22     0  04:06      1.45    0.96    1.00
  WS02006239WS02006238 CONDUIT    428.88     0  04:26      1.12    1.37    1.00
  WS02006240WS02006239 CONDUIT    428.95     0  04:05      1.26    1.35    1.00
  WS02006242WS02006240 CONDUIT    426.89     0  04:05      1.14    1.70    1.00
  WS02006243WS02006242 CONDUIT    427.43     0  04:05      1.34    0.91    1.00
  WS02006245WS02006243 CONDUIT    427.98     0  04:05      1.39    1.27    1.00
  WS02006247WS02006245 CONDUIT    428.85     0  04:05      1.38    3.40    1.00
  WS02006248WS02006247 CONDUIT    428.20     0  04:05      1.46    0.93    1.00
  WS02006249WS02006248 CONDUIT    427.26     0  04:05      1.43    2.34    1.00
  WS02006251WS02006249 CONDUIT   1342.91     0  02:11      3.49    3.87    1.00
  WS02006252WS02006251 CONDUIT    416.28     0  02:05     25.85    1.53    1.00
  WS02006253WS02006251 CONDUIT   1496.52     0  02:14      3.89    4.49    1.00
  WS02006256WS02006235 CONDUIT    288.93     0  00:00      4.23    3.06    1.00
  WS02006280WS02006229 CONDUIT   2290.73     0  02:13      3.93    0.49    1.00
  WS02006284WS02006280 CONDUIT   2288.91     0  02:13      3.02    0.96    1.00
  WS02006287WS02006284 CONDUIT   2288.76     0  02:13      2.91    1.06    1.00
  WSF200WS02003060     CONDUIT   1286.83     0  02:14      2.29    0.29    0.50
  YS02001580YS02001583 CONDUIT    102.19     0  02:07      0.70    0.40    1.00
  YS02001583YS02001586 CONDUIT    164.86     0  02:07      0.69    0.25    1.00
  YS02001586YS02001590 CONDUIT    323.23     0  02:14      1.25    0.57    1.00
  YS02001590YS02001593 CONDUIT    323.69     0  02:14      1.14    2.03    1.00
  YS02001593YS02001596 CONDUIT    318.01     0  02:14      1.73    0.50    1.00
  YS02001596YS02001600 CONDUIT    318.45     0  02:14      1.23    0.62    1.00
  YS02001600YS02001601 CONDUIT    318.87     0  02:14      1.13    0.55    1.00
  YS02001601YS02001602 CONDUIT    520.00     0  02:07      1.84    1.88    1.00
  YS02001602YS02001605 CONDUIT    520.04     0  02:07      1.84   11.00    1.00
  YS02001605YS02001607 CONDUIT    519.93     0  02:07      1.84    2.85    1.00
  YS02001607YS02001610 CONDUIT    518.79     0  02:07      0.66    0.49    1.00
  YS02001610YS02001613 CONDUIT    520.32     0  02:07      0.66    0.60    1.00
  YS02001613YS02001616 CONDUIT    523.60     0  02:07      0.67    0.45    1.00
  YS02001616YS02001619 CONDUIT    502.02     0  02:07      0.67    0.87    1.00
  YS02001619YS02001622 CONDUIT    923.25     0  02:09      1.19    1.36    1.00
  YS02001622YS02001625 CONDUIT    922.88     0  02:09      1.18    0.49    1.00
  YS02001625YS02001629 CONDUIT    922.49     0  02:09      1.17    0.44    1.00
  YS02001629YS02163301 CONDUIT    919.93     0  02:09      1.17    1.13    1.00
  YS02001633YS02163601 CONDUIT   1364.72     0  02:09      1.74    1.43    1.00
  YS02001641YS02001644 CONDUIT   1386.97     0  02:10      1.77    4.48    1.00
  YS02001644YS02001647 CONDUIT   1806.36     0  02:10      2.30    1.06    1.00
  YS02001647YS02001649 CONDUIT   1818.49     0  02:10      2.33    0.96    1.00
  YS02001649YS02001757 CONDUIT   1996.22     0  02:10      2.54    1.21    1.00
  YS02001652YS02001649 CONDUIT    789.51     0  02:13      1.01    0.39    1.00
  YS02001655YS02001652 CONDUIT    788.08     0  02:13      1.31    0.38    1.00
  YS02001658YS02001655 CONDUIT    788.04     0  02:13      1.91    0.33    1.00
  YS02001661YS02001658 CONDUIT    800.99     0  02:14      2.33    0.31    1.00
  YS02001664YS02001661 CONDUIT    774.72     0  02:12      2.34    0.24    0.82
  YS02001745YS02001748 CONDUIT    575.30     0  02:12      2.20    0.22    0.93
  YS02001748YS02001751 CONDUIT    509.13     0  02:12      1.71    0.26    1.00
  YS02001751YS02001754 CONDUIT    508.94     0  02:13      1.44    0.25    1.00
  YS02001754YS02001757 CONDUIT    510.72     0  02:13      0.65    0.21    1.00
  YS02001757CaochengTiaoxuchi CONDUIT   3302.02     0  02:13      4.20    1.43    1.00
  YS02001759YS02001757 CONDUIT   1285.07     0  02:14      1.64    0.91    1.00
  YS02001762YS02001759 CONDUIT    741.84     0  02:15      0.94    0.85    1.00
  YS02001765YS02001762 CONDUIT    741.06     0  02:15      0.94    0.69    1.00
  YS02001767YS02001765 CONDUIT    741.36     0  02:15      0.94    0.93    1.00
  YS02001770YS02001767 CONDUIT    740.68     0  02:15      0.94    2.93    1.00
  YS02001774YS02001770 CONDUIT    385.52     0  02:10      0.49    0.25    1.00
  YS02001779YS02001774 CONDUIT    390.43     0  02:10      0.50    0.20    1.00
  YS02001783YS02001784 CONDUIT   1163.05     0  02:13      2.31    1.60    1.00
  YS02001784YS02001785 CONDUIT   1164.86     0  02:13      2.32    2.71    1.00
  YS02001786YS02001788 CONDUIT   1165.94     0  02:13      2.48    2.25    0.89
  YS02001788YS02001790 CONDUIT   1169.55     0  02:12      2.70    0.86    0.84
  YS02001790YS02001791 CONDUIT   1286.19     0  02:13      3.42    1.40    0.70
  YS02001791YS02001793 CONDUIT   1238.27     0  02:13      6.78    0.53    0.43
  YS02001793JiankangQianchi CONDUIT   1263.26     0  02:15      2.53    0.10    0.64
  YS02001882YS02001884 CONDUIT     48.08     0  02:09      0.09    0.06    1.00
  YS02001884YS02001887 CONDUIT     74.41     0  02:09      0.09    0.10    1.00
  YS02001887YS02001890 CONDUIT    638.48     0  02:13      0.81    1.09    1.00
  YS02001890YS02001895 CONDUIT    526.48     0  02:14      0.67    0.25    1.00
  YS02001895YS02001898 CONDUIT    515.21     0  02:15      0.66    0.89    1.00
  YS02001898YS02001901 CONDUIT    515.77     0  02:15      0.66    0.33    1.00
  YS02001901YS02001904 CONDUIT    519.14     0  02:14      0.66    0.81    1.00
  YS02001904YS02001907 CONDUIT    520.04     0  02:14      0.66    0.18    1.00
  YS02001907YS02006553 CONDUIT    796.14     0  02:26      0.88    0.94    1.00
  YS02001910YS02001907 CONDUIT   1066.27     0  02:12      1.36    0.60    1.00
  YS02001915YS02001910 CONDUIT   1066.58     0  02:12      1.36    0.53    1.00
  YS02001918YS02001915 CONDUIT    443.75     0  02:12      0.57    0.24    1.00
  YS02001920YS02001918 CONDUIT    443.02     0  02:12      0.67    0.43    1.00
  YS02001923YS02001920 CONDUIT    439.04     0  02:12      0.69    0.20    1.00
  YS02001926YS02001923 CONDUIT    414.90     0  02:11      0.97    0.59    1.00
  YS02001929YS02001926 CONDUIT    403.85     0  02:11      1.14    0.19    1.00
  YS02006553YS02006556 CONDUIT    797.47     0  02:26      1.02    0.68    1.00
  YS02006556YS02006558 CONDUIT    798.57     0  02:26      1.02    0.63    1.00
  YS02006558YS02006561 CONDUIT   1164.33     0  02:10      4.12    2.57    1.00
  YS02006561YS02001783 CONDUIT   1163.83     0  02:13      2.32    0.60    1.00
  YS02163301YS02001633 CONDUIT    918.94     0  02:09      1.17    0.86    1.00
  YS02163601YS02164001 CONDUIT   1363.26     0  02:09      1.74    1.21    1.00
  YS02164001YS02001641 CONDUIT   1379.75     0  02:10      1.76    1.88    1.00
  YSB1154YSB6556       CONDUIT    333.84     0  02:14      0.87    0.60    1.00
  YSB1171HS02004479    CONDUIT    469.20     0  02:10      0.93    0.31    1.00
  YSB1174YSB1171       CONDUIT    295.74     0  02:13      0.77    0.45    1.00
  YSB6556YSB1171       CONDUIT    334.96     0  02:14      0.87    0.34    1.00
  CC-R1                PUMP       683.00     0  00:00              1.00
  CC-R2                PUMP       683.00     0  00:00              1.00
  CC-S1                PUMP       200.00     0  00:00              1.00
  CC-S2                PUMP       200.00     0  00:00              1.00
  JK-R1                PUMP      1000.00     0  00:00              1.00
  JK-R2                PUMP      1000.00     0  00:00              1.00
  JK-S                 PUMP       300.00     0  00:00              1.00
  XR-1                 PUMP        95.00     0  00:00              1.00
  XR-2                 PUMP        95.00     0  00:00              1.00
  XR-3                 PUMP        95.00     0  00:00              1.00
  XR-4                 PUMP        95.00     0  00:00              1.00
  
  
  ***************************
  Flow Classification Summary
  ***************************
  
  -------------------------------------------------------------------------------------
                      Adjusted    ---------- Fraction of Time in Flow Class ---------- 
                       /Actual         Up    Down  Sub   Sup   Up    Down  Norm  Inlet 
  Conduit               Length    Dry  Dry   Dry   Crit  Crit  Crit  Crit  Ltd   Ctrl  
  -------------------------------------------------------------------------------------
  1                       1.00   0.00  0.00  0.00  0.00  1.00  0.00  0.00  0.43  0.00
  HS02004478WS02006287    1.00   0.13  0.00  0.00  0.62  0.25  0.00  0.00  0.61  0.00
  HS02004479HS02004480    1.00   0.03  0.00  0.00  0.97  0.00  0.00  0.00  0.12  0.00
  HS02004480HS02004478    1.00   0.12  0.00  0.00  0.57  0.00  0.00  0.31  0.00  0.00
  HS02004770HS02004777    1.00   0.00  0.12  0.00  0.88  0.00  0.00  0.00  0.03  0.00
  HS02004777HS02004785    1.00   0.00  0.00  0.00  1.00  0.00  0.00  0.00  0.13  0.00
  HS02004785HS02004788    1.00   0.00  0.00  0.00  1.00  0.00  0.00  0.00  0.00  0.00
  HS02004788HS02004792    1.00   0.00  0.00  0.00  0.99  0.01  0.00  0.00  0.92  0.00
  HS02004792HS02004799    1.00   0.00  0.00  0.00  0.99  0.01  0.00  0.00  0.89  0.00
  HS02004799HS02004480    1.00   0.00  0.02  0.00  0.87  0.00  0.11  0.00  0.00  0.00
  HS02004802HS02004478    1.00   0.12  0.00  0.00  0.88  0.00  0.00  0.00  0.03  0.00
  HS02004807HS02004802    1.00   0.12  0.00  0.00  0.87  0.00  0.00  0.01  0.00  0.00
  HS02004817HS02004807    1.00   0.00  0.12  0.00  0.88  0.00  0.00  0.00  0.01  0.00
  HS02004817HS02004824    1.00   0.00  0.00  0.00  1.00  0.00  0.00  0.00  0.85  0.00
  HS02004824HS02004830    1.00   0.00  0.00  0.00  1.00  0.00  0.00  0.00  0.01  0.00
  HS02004830HS02004837    1.00   0.00  0.00  0.00  1.00  0.00  0.00  0.00  0.91  0.00
  HS02004837HS02004842    1.00   0.00  0.00  0.00  1.00  0.00  0.00  0.00  0.11  0.00
  HS02004842HS02004848    1.00   0.00  0.12  0.00  0.88  0.00  0.00  0.00  0.58  0.00
  HS02004848HS02004852    1.00   0.12  0.00  0.00  0.88  0.00  0.00  0.00  0.70  0.00
  HS02004852HS02004856    1.00   0.12  0.01  0.00  0.88  0.00  0.00  0.00  0.70  0.00
  HS02004856HS02004862    1.00   0.00  0.14  0.00  0.86  0.00  0.00  0.00  0.75  0.00
  HS02004862HS02004870    1.00   0.00  0.00  0.00  1.00  0.00  0.00  0.00  0.04  0.00
  HS02004870HS02004876    1.00   0.00  0.00  0.00  0.99  0.01  0.00  0.00  0.88  0.00
  HS02004876HS02004881    1.00   0.01  0.00  0.00  0.80  0.19  0.00  0.00  0.00  0.00
  HS02004881HS02006253    1.00   0.02  0.02  0.00  0.70  0.01  0.00  0.26  0.42  0.00
  HS02004901HS02004770    1.00   0.12  0.00  0.00  0.88  0.00  0.00  0.00  0.00  0.00
  WS02001211WS02001212    1.00   0.00  0.02  0.00  0.98  0.00  0.00  0.00  0.00  0.00
  WS02001212WS02001213    1.00   0.02  0.00  0.00  0.63  0.00  0.35  0.00  0.00  0.00
  WS02001213WS02003059    1.00   0.00  0.00  0.00  1.00  0.00  0.00  0.00  0.00  0.00
  WS02003059WS02003060    1.00   0.00  0.00  0.00  1.00  0.00  0.00  0.00  0.03  0.00
  WS02003060WS02003069    1.00   0.00  0.00  0.00  0.98  0.02  0.00  0.00  0.41  0.00
  WS02003066WSF200        1.00   0.09  0.00  0.00  0.00  0.91  0.00  0.00  0.64  0.00
  WS02003067WS02003066    1.00   0.08  0.01  0.00  0.92  0.00  0.00  0.00  0.00  0.00
  WS02003069WS02003072    1.00   0.00  0.00  0.00  1.00  0.00  0.00  0.00  0.46  0.00
  WS02003072WS02003073    1.00   0.00  0.00  0.00  0.00  0.00  0.00  1.00  0.00  0.00
  WS02004138WS02004139    1.00   0.00  0.00  0.00  0.98  0.00  0.00  0.01  0.98  0.00
  WS02004139WS02001211    1.00   0.00  0.00  0.00  1.00  0.00  0.00  0.00  0.00  0.00
  WS02004401WS02004402    1.00   0.02  0.00  0.00  0.98  0.00  0.00  0.00  0.00  0.00
  WS02004402WS02004403    1.00   0.02  0.00  0.00  0.98  0.00  0.00  0.00  0.00  0.00
  WS02004403WS02004404    1.00   0.00  0.02  0.00  0.98  0.00  0.00  0.00  0.00  0.00
  WS02004404WS02004405    1.00   0.00  0.00  0.00  1.00  0.00  0.00  0.00  0.01  0.00
  WS02004405WS02004406    1.00   0.00  0.00  0.00  1.00  0.00  0.00  0.00  0.00  0.00
  WS02004406WS02004407    1.00   0.00  0.04  0.00  0.96  0.00  0.00  0.00  0.00  0.00
  WS02004407WS02004409    1.00   0.04  0.00  0.00  0.93  0.04  0.00  0.00  0.84  0.00
  WS02004409WS02004410    1.00   0.04  0.00  0.00  0.96  0.00  0.00  0.00  0.00  0.00
  WS02004410WS02004411    1.00   0.04  0.00  0.00  0.96  0.00  0.00  0.00  0.00  0.00
  WS02004411WS02004412    1.00   0.04  0.00  0.00  0.95  0.00  0.00  0.00  0.00  0.00
  WS02004412WS02004413    1.00   0.05  0.00  0.00  0.94  0.01  0.00  0.00  0.00  0.00
  WS02004413WS02003067    1.00   0.06  0.02  0.00  0.00  0.00  0.92  0.00  0.00  0.00
  WS02006109WS02006110    1.00   0.00  0.01  0.00  0.99  0.00  0.01  0.00  0.00  0.00
  WS02006110WS02006113    1.00   0.01  0.01  0.00  0.99  0.00  0.00  0.00  0.00  0.00
  WS02006111WS02006112    1.00   0.01  0.00  0.00  0.98  0.00  0.00  0.00  0.78  0.00
  WS02006112WS02006115    1.00   0.01  0.00  0.00  0.98  0.00  0.00  0.00  0.00  0.00
  WS02006113WS02006111    1.00   0.01  0.00  0.00  0.19  0.80  0.00  0.00  0.13  0.00
  WS02006115WS02006116    1.00   0.02  0.00  0.00  0.98  0.00  0.00  0.01  0.00  0.00
  WS02006116WS02004401    1.00   0.02  0.00  0.00  0.98  0.00  0.00  0.00  0.00  0.00
  WS02006228WS02006109    1.00   0.00  0.00  0.00  1.00  0.00  0.00  0.00  0.00  0.00
  WS02006229WS02006228    1.00   0.00  0.00  0.00  0.99  0.00  0.00  0.01  0.00  0.00
  WS02006230WS02006229    1.00   0.00  0.00  0.00  0.99  0.00  0.00  0.01  0.02  0.00
  WS02006231WS02006230    1.00   0.00  0.00  0.00  0.56  0.00  0.44  0.00  0.00  0.00
  WS02006232WS02006231    1.00   0.00  0.00  0.00  0.99  0.00  0.00  0.00  0.00  0.00
  WS02006234WS02006232    1.00   0.00  0.00  0.00  1.00  0.00  0.00  0.00  0.02  0.00
  WS02006235WS02006234    1.00   0.00  0.00  0.00  0.96  0.00  0.04  0.00  0.00  0.00
  WS02006238WS02006235    1.00   0.00  0.00  0.00  1.00  0.00  0.00  0.00  0.00  0.00
  WS02006239WS02006238    1.00   0.00  0.00  0.00  1.00  0.00  0.00  0.00  0.08  0.00
  WS02006240WS02006239    1.00   0.00  0.00  0.00  0.85  0.00  0.00  0.15  0.02  0.00
  WS02006242WS02006240    1.00   0.00  0.00  0.00  0.99  0.00  0.01  0.00  0.00  0.00
  WS02006243WS02006242    1.00   0.00  0.00  0.00  1.00  0.00  0.00  0.00  0.43  0.00
  WS02006245WS02006243    1.00   0.00  0.00  0.00  0.94  0.00  0.00  0.06  0.00  0.00
  WS02006247WS02006245    1.00   0.00  0.00  0.00  0.99  0.00  0.00  0.01  0.00  0.00
  WS02006248WS02006247    1.00   0.00  0.00  0.00  1.00  0.00  0.00  0.00  0.44  0.00
  WS02006249WS02006248    1.00   0.00  0.00  0.00  0.77  0.00  0.23  0.00  0.00  0.00
  WS02006251WS02006249    1.00   0.00  0.00  0.00  1.00  0.00  0.00  0.00  0.42  0.00
  WS02006252WS02006251    1.00   0.00  0.19  0.00  0.30  0.00  0.51  0.00  0.00  0.00
  WS02006253WS02006251    1.00   0.00  0.00  0.00  1.00  0.00  0.00  0.00  0.01  0.00
  WS02006256WS02006235    1.00   0.00  0.00  0.00  0.99  0.01  0.00  0.00  0.00  0.00
  WS02006280WS02006229    1.00   0.12  0.00  0.00  0.15  0.03  0.00  0.69  0.00  0.00
  WS02006284WS02006280    1.00   0.12  0.00  0.00  0.10  0.01  0.00  0.77  0.00  0.00
  WS02006287WS02006284    1.00   0.11  0.03  0.00  0.53  0.33  0.00  0.00  0.67  0.00
  WSF200WS02003060        1.00   0.00  0.09  0.00  0.48  0.44  0.00  0.00  0.45  0.00
  YS02001580YS02001583    1.00   0.27  0.53  0.00  0.21  0.00  0.00  0.00  0.66  0.00
  YS02001583YS02001586    1.00   0.27  0.47  0.00  0.26  0.00  0.00  0.00  0.66  0.00
  YS02001586YS02001590    1.00   0.12  0.00  0.00  0.47  0.10  0.00  0.31  0.37  0.00
  YS02001590YS02001593    1.00   0.12  0.00  0.00  0.11  0.00  0.77  0.00  0.00  0.00
  YS02001593YS02001596    1.00   0.12  0.00  0.00  0.13  0.01  0.00  0.74  0.02  0.00
  YS02001596YS02001600    1.00   0.12  0.00  0.00  0.21  0.03  0.00  0.64  0.05  0.00
  YS02001600YS02001601    1.00   0.12  0.00  0.00  0.87  0.00  0.00  0.00  0.63  0.00
  YS02001601YS02001602    1.00   0.12  0.00  0.00  0.88  0.00  0.00  0.00  0.00  0.00
  YS02001602YS02001605    1.00   0.12  0.00  0.00  0.88  0.00  0.00  0.00  0.00  0.00
  YS02001605YS02001607    1.00   0.12  0.00  0.00  0.88  0.00  0.00  0.00  0.00  0.00
  YS02001607YS02001610    1.00   0.12  0.00  0.00  0.87  0.00  0.00  0.00  0.02  0.00
  YS02001610YS02001613    1.00   0.12  0.00  0.00  0.88  0.00  0.00  0.00  0.01  0.00
  YS02001613YS02001616    1.00   0.12  0.00  0.00  0.88  0.00  0.00  0.00  0.01  0.00
  YS02001616YS02001619    1.00   0.12  0.00  0.00  0.88  0.00  0.00  0.00  0.00  0.00
  YS02001619YS02001622    1.00   0.12  0.00  0.00  0.88  0.00  0.00  0.00  0.29  0.00
  YS02001622YS02001625    1.00   0.12  0.00  0.00  0.88  0.00  0.00  0.00  0.06  0.00
  YS02001625YS02001629    1.00   0.12  0.03  0.00  0.15  0.00  0.70  0.00  0.00  0.00
  YS02001629YS02163301    1.00   0.13  0.00  0.00  0.86  0.00  0.00  0.00  0.00  0.00
  YS02001633YS02163601    1.00   0.00  0.00  0.00  1.00  0.00  0.00  0.00  0.15  0.00
  YS02001641YS02001644    1.00   0.00  0.00  0.00  1.00  0.00  0.00  0.00  0.00  0.00
  YS02001644YS02001647    1.00   0.00  0.15  0.00  0.85  0.00  0.00  0.00  0.00  0.00
  YS02001647YS02001649    1.00   0.00  0.15  0.00  0.49  0.37  0.00  0.00  0.56  0.00
  YS02001649YS02001757    1.00   0.00  0.00  0.00  0.65  0.35  0.00  0.00  0.41  0.00
  YS02001652YS02001649    1.00   0.00  0.00  0.00  0.97  0.02  0.00  0.00  0.76  0.00
  YS02001655YS02001652    1.00   0.00  0.00  0.00  0.19  0.02  0.00  0.79  0.06  0.00
  YS02001658YS02001655    1.00   0.00  0.13  0.00  0.60  0.27  0.00  0.00  0.72  0.00
  YS02001661YS02001658    1.00   0.13  0.00  0.00  0.43  0.44  0.00  0.00  0.70  0.00
  YS02001664YS02001661    1.00   0.12  0.00  0.00  0.76  0.13  0.00  0.00  0.86  0.00
  YS02001745YS02001748    1.00   0.00  0.00  0.00  0.08  0.01  0.00  0.91  0.04  0.00
  YS02001748YS02001751    1.00   0.00  0.00  0.00  0.76  0.24  0.00  0.00  0.78  0.00
  YS02001751YS02001754    1.00   0.00  0.00  0.00  0.17  0.01  0.00  0.83  0.04  0.00
  YS02001754YS02001757    1.00   0.00  0.00  0.00  1.00  0.00  0.00  0.00  0.81  0.00
  YS02001757CaochengTiaoxuchi    1.00   0.00  0.00  0.00  1.00  0.00  0.00  0.00  0.71  0.00
  YS02001759YS02001757    1.00   0.00  0.00  0.00  1.00  0.00  0.00  0.00  0.56  0.00
  YS02001762YS02001759    1.00   0.00  0.00  0.00  1.00  0.00  0.00  0.00  0.06  0.00
  YS02001765YS02001762    1.00   0.00  0.00  0.00  1.00  0.00  0.00  0.00  0.68  0.00
  YS02001767YS02001765    1.00   0.00  0.00  0.00  1.00  0.00  0.00  0.00  0.01  0.00
  YS02001770YS02001767    1.00   0.00  0.00  0.00  1.00  0.00  0.00  0.00  0.00  0.00
  YS02001774YS02001770    1.00   0.00  0.12  0.00  0.79  0.00  0.09  0.00  0.04  0.00
  YS02001779YS02001774    1.00   0.00  0.00  0.00  1.00  0.00  0.00  0.00  0.79  0.00
  YS02001783YS02001784    1.00   0.00  0.15  0.00  0.85  0.00  0.00  0.00  0.56  0.00
  YS02001784YS02001785    1.00   0.00  0.00  0.00  1.00  0.00  0.00  0.00  0.18  0.00
  YS02001786YS02001788    1.00   0.00  0.00  0.00  0.71  0.29  0.00  0.00  0.00  0.00
  YS02001788YS02001790    1.00   0.00  0.00  0.00  0.18  0.82  0.00  0.00  0.82  0.00
  YS02001790YS02001791    1.00   0.00  0.00  0.00  0.01  0.99  0.00  0.00  0.15  0.00
  YS02001791YS02001793    1.00   0.00  0.00  0.00  0.00  1.00  0.00  0.00  0.00  0.00
  YS02001793JiankangQianchi    1.00   0.00  0.00  0.00  0.98  0.02  0.00  0.00  0.98  0.00
  YS02001882YS02001884    1.00   0.13  0.00  0.00  0.86  0.00  0.00  0.00  0.00  0.00
  YS02001884YS02001887    1.00   0.06  0.05  0.00  0.89  0.00  0.00  0.00  0.00  0.00
  YS02001887YS02001890    1.00   0.00  0.00  0.00  0.98  0.00  0.02  0.00  0.00  0.00
  YS02001890YS02001895    1.00   0.00  0.14  0.00  0.86  0.00  0.00  0.00  0.00  0.00
  YS02001895YS02001898    1.00   0.14  0.00  0.00  0.84  0.00  0.01  0.00  0.00  0.00
  YS02001898YS02001901    1.00   0.14  0.00  0.00  0.86  0.00  0.00  0.00  0.02  0.00
  YS02001901YS02001904    1.00   0.14  0.00  0.00  0.86  0.00  0.00  0.00  0.00  0.00
  YS02001904YS02001907    1.00   0.00  0.14  0.00  0.86  0.00  0.00  0.00  0.00  0.00
  YS02001907YS02006553    1.00   0.00  0.02  0.00  0.98  0.00  0.00  0.00  0.00  0.00
  YS02001910YS02001907    1.00   0.00  0.00  0.00  0.98  0.00  0.00  0.02  0.12  0.00
  YS02001915YS02001910    1.00   0.00  0.00  0.00  0.98  0.02  0.00  0.00  0.17  0.00
  YS02001918YS02001915    1.00   0.00  0.00  0.00  0.98  0.01  0.00  0.00  0.77  0.00
  YS02001920YS02001918    1.00   0.00  0.00  0.00  1.00  0.00  0.00  0.00  0.00  0.00
  YS02001923YS02001920    1.00   0.00  0.00  0.00  1.00  0.00  0.00  0.00  0.94  0.00
  YS02001926YS02001923    1.00   0.00  0.09  0.00  0.05  0.00  0.86  0.00  0.00  0.00
  YS02001929YS02001926    1.00   0.00  0.12  0.00  0.88  0.00  0.00  0.00  0.84  0.00
  YS02006553YS02006556    1.00   0.01  0.00  0.00  0.99  0.00  0.00  0.00  0.03  0.00
  YS02006556YS02006558    1.00   0.00  0.00  0.00  1.00  0.00  0.00  0.00  0.00  0.00
  YS02006558YS02006561    1.00   0.15  0.00  0.00  0.04  0.81  0.00  0.00  0.19  0.00
  YS02006561YS02001783    1.00   0.15  0.00  0.00  0.08  0.77  0.00  0.00  0.70  0.00
  YS02163301YS02001633    1.00   0.00  0.13  0.00  0.87  0.00  0.00  0.00  0.00  0.00
  YS02163601YS02164001    1.00   0.00  0.10  0.00  0.90  0.00  0.00  0.00  0.00  0.00
  YS02164001YS02001641    1.00   0.00  0.09  0.00  0.90  0.00  0.00  0.00  0.06  0.00
  YSB1154YSB6556          1.00   0.12  0.00  0.00  0.88  0.00  0.00  0.00  0.02  0.00
  YSB1171HS02004479       1.00   0.03  0.00  0.00  0.95  0.01  0.00  0.01  0.10  0.00
  YSB1174YSB1171          1.00   0.04  0.07  0.00  0.90  0.00  0.00  0.00  0.00  0.00
  YSB6556YSB1171          1.00   0.03  0.09  0.00  0.88  0.00  0.00  0.00  0.00  0.00
  
  
  *************************
  Conduit Surcharge Summary
  *************************
  
  ----------------------------------------------------------------------------
                                                           Hours        Hours 
                         --------- Hours Full --------   Above Full   Capacity
  Conduit                Both Ends  Upstream  Dnstream   Normal Flow   Limited
  ----------------------------------------------------------------------------
  HS02004478WS02006287        0.34      0.34      0.49      0.01         0.01
  HS02004479HS02004480        0.49      0.49      0.51      0.01         0.01
  HS02004480HS02004478        0.43      0.48      0.43      1.46         0.43
  HS02004770HS02004777        0.40      0.40      0.41      0.08         0.06
  HS02004777HS02004785        0.36      0.36      0.41      0.01         0.01
  HS02004785HS02004788        0.35      0.36      0.35      1.17         0.33
  HS02004788HS02004792        0.35      0.35      0.45      0.01         0.01
  HS02004792HS02004799        0.45      0.45      0.56      0.01         0.01
  HS02004799HS02004480        0.48      0.48      0.56      0.63         0.01
  HS02004802HS02004478        0.44      0.44      0.50      0.01         0.01
  HS02004807HS02004802        0.48      0.48      0.49      0.15         0.15
  HS02004817HS02004807        0.48      0.48      0.97      0.01         0.01
  HS02004817HS02004824        0.36      0.36      0.97      0.01         0.01
  HS02004824HS02004830        0.33      0.33      0.36      0.01         0.01
  HS02004830HS02004837        0.30      0.30      0.33      0.01         0.01
  HS02004837HS02004842        0.30      0.30      0.42      0.01         0.01
  HS02004842HS02004848        0.27      0.27      0.42      0.01         0.01
  HS02004848HS02004852        0.27      0.27      0.29      0.02         0.01
  HS02004852HS02004856        0.29      0.29      0.31      0.02         0.01
  HS02004856HS02004862        0.28      0.28      0.31      0.01         0.01
  HS02004862HS02004870        0.31      0.31      0.32      0.03         0.04
  HS02004870HS02004876        0.32      0.32      0.39      0.01         0.01
  HS02004876HS02004881        0.37      0.39      0.37      1.21         0.37
  HS02004881HS02006253        0.37      0.37      2.10      0.01         0.01
  HS02004901HS02004770        0.40      0.40      0.41      0.01         0.01
  WS02003072WS02003073        0.01      0.01      0.01      3.77         0.01
  WS02004401WS02004402        1.42      1.42      1.47      1.21         1.21
  WS02004402WS02004403        1.47      1.47      1.48      1.38         1.38
  WS02004403WS02004404        1.48      1.48      1.59      0.01         0.01
  WS02004404WS02004405        1.56      1.59      1.56      4.48         1.56
  WS02004405WS02004406        1.54      1.56      1.54      2.04         1.54
  WS02004406WS02004407        0.01      0.01      1.54      0.01         0.01
  WS02004407WS02004409        0.01      0.01      0.81      0.01         0.01
  WS02004409WS02004410        0.73      0.81      0.73      1.26         0.73
  WS02004410WS02004411        0.67      0.73      0.67      1.31         0.67
  WS02004411WS02004412        0.59      0.67      0.59      1.35         0.59
  WS02004412WS02004413        0.59      0.59      1.11      0.01         0.01
  WS02004413WS02003067        0.01      0.01      1.11      0.01         0.01
  WS02006109WS02006110        1.87      1.87      2.96      1.90         0.01
  WS02006110WS02006113        1.02      1.02      2.94      0.25         0.01
  WS02006111WS02006112        1.01      1.01      3.49      0.01         0.01
  WS02006112WS02006115        1.27      1.27      2.14      0.01         0.01
  WS02006113WS02006111        1.02      1.02      1.02      1.20         1.02
  WS02006115WS02006116        1.28      1.28      1.28      1.25         1.24
  WS02006116WS02004401        1.41      1.41      1.42      1.32         1.31
  WS02006228WS02006109        2.92      2.96      2.92      4.03         2.92
  WS02006229WS02006228        2.90      2.94      2.90      3.42         2.90
  WS02006230WS02006229        3.13      3.32      3.13      4.65         2.27
  WS02006231WS02006230        1.67      1.68      2.02      4.31         0.79
  WS02006232WS02006231        1.92      1.92      2.87      0.08         0.11
  WS02006234WS02006232        2.78      2.78      2.87      0.07         0.09
  WS02006235WS02006234        2.74      2.75      2.77      4.14         0.78
  WS02006238WS02006235        2.80      2.80      2.84      0.01         0.28
  WS02006239WS02006238        2.81      2.83      2.82      2.37         1.39
  WS02006240WS02006239        2.77      2.79      2.78      2.35         1.36
  WS02006242WS02006240        2.78      2.78      2.92      2.81         0.66
  WS02006243WS02006242        2.77      2.77      2.84      0.01         0.04
  WS02006245WS02006243        2.76      2.77      2.77      1.67         1.35
  WS02006247WS02006245        2.76      2.77      2.76      3.79         1.69
  WS02006248WS02006247        2.73      2.73      2.76      0.01         0.05
  WS02006249WS02006248        2.73      2.73      2.73      2.93         0.01
  WS02006251WS02006249        2.72      2.72      2.73      2.84         2.49
  WS02006252WS02006251        3.12      3.12      3.17      2.74         0.01
  WS02006253WS02006251        2.72      2.72      2.73      0.60         0.02
  WS02006256WS02006235        4.31      4.36      7.28      0.77         0.01
  WS02006280WS02006229        0.60      0.60      0.70      0.01         0.01
  WS02006284WS02006280        0.51      0.51      0.58      0.01         0.01
  WS02006287WS02006284        0.43      0.43      0.52      0.18         0.18
  YS02001580YS02001583        0.41      0.41      0.45      0.01         0.01
  YS02001583YS02001586        0.42      0.42      0.54      0.01         0.01
  YS02001586YS02001590        0.54      0.54      0.60      0.01         0.01
  YS02001590YS02001593        0.60      0.60      0.62      0.63         0.01
  YS02001593YS02001596        0.61      0.61      0.70      0.01         0.01
  YS02001596YS02001600        0.74      0.74      0.83      0.01         0.01
  YS02001600YS02001601        0.89      0.89      1.17      0.01         0.01
  YS02001601YS02001602        1.06      1.06      1.21      0.84         0.01
  YS02001602YS02001605        1.01      1.01      1.06      2.06         0.01
  YS02001605YS02001607        0.96      1.01      0.96      1.14         0.96
  YS02001607YS02001610        0.57      0.57      0.60      0.01         0.01
  YS02001610YS02001613        0.57      0.57      0.60      0.01         0.01
  YS02001613YS02001616        0.53      0.53      0.57      0.01         0.01
  YS02001616YS02001619        0.52      0.52      0.53      0.01         0.01
  YS02001619YS02001622        0.51      0.52      0.51      0.62         0.48
  YS02001622YS02001625        0.51      0.51      0.68      0.01         0.01
  YS02001625YS02001629        0.48      0.48      0.68      0.01         0.01
  YS02001629YS02163301        0.67      0.67      0.68      0.17         0.15
  YS02001633YS02163601        0.70      0.70      0.72      0.31         0.30
  YS02001641YS02001644        0.61      0.63      0.61      1.26         0.60
  YS02001644YS02001647        0.43      0.43      0.61      0.03         0.01
  YS02001647YS02001649        0.43      0.43      0.52      0.01         0.01
  YS02001649YS02001757        0.51      0.52      0.57      0.07         0.05
  YS02001652YS02001649        0.38      0.38      0.52      0.01         0.01
  YS02001655YS02001652        0.24      0.24      0.36      0.01         0.01
  YS02001658YS02001655        0.11      0.11      0.24      0.01         0.01
  YS02001661YS02001658        0.01      0.01      0.11      0.01         0.01
  YS02001664YS02001661        0.01      0.01      0.02      0.01         0.01
  YS02001745YS02001748        0.01      0.01      0.03      0.01         0.01
  YS02001748YS02001751        0.09      0.09      0.16      0.01         0.01
  YS02001751YS02001754        0.16      0.16      0.28      0.01         0.01
  YS02001754YS02001757        0.31      0.31      0.57      0.01         0.01
  YS02001757CaochengTiaoxuchi        0.57      0.57      1.77      0.27         0.24
  YS02001759YS02001757        0.49      0.49      0.57      0.01         0.01
  YS02001762YS02001759        0.46      0.46      0.49      0.01         0.02
  YS02001765YS02001762        0.42      0.42      0.46      0.01         0.01
  YS02001767YS02001765        0.39      0.39      0.42      0.01         0.02
  YS02001770YS02001767        0.39      0.40      0.39      0.40         0.29
  YS02001774YS02001770        0.36      0.36      0.44      0.01         0.01
  YS02001779YS02001774        0.28      0.28      0.44      0.01         0.01
  YS02001783YS02001784        0.38      0.40      0.38      0.53         0.38
  YS02001784YS02001785        0.28      0.38      0.28      0.72         0.28
  YS02001786YS02001788        0.01      0.28      0.01      0.62         0.01
  YS02001790YS02001791        0.01      0.01      0.01      0.36         0.01
  YS02001793JiankangQianchi        0.01      0.01      6.64      0.01         0.01
  YS02001882YS02001884        0.35      0.35      0.36      0.01         0.01
  YS02001884YS02001887        0.38      0.38      0.39      0.01         0.01
  YS02001887YS02001890        0.40      0.40      0.41      0.04         0.01
  YS02001890YS02001895        0.34      0.34      0.43      0.01         0.01
  YS02001895YS02001898        0.33      0.33      0.34      0.01         0.01
  YS02001898YS02001901        0.34      0.34      0.38      0.01         0.01
  YS02001901YS02001904        0.37      0.37      0.38      0.01         0.01
  YS02001904YS02001907        0.37      0.37      0.61      0.01         0.01
  YS02001907YS02006553        0.72      0.72      0.79      0.01         0.01
  YS02001910YS02001907        0.42      0.42      0.59      0.01         0.01
  YS02001915YS02001910        0.35      0.35      0.42      0.01         0.01
  YS02001918YS02001915        0.27      0.27      0.35      0.01         0.01
  YS02001920YS02001918        0.27      0.27      0.29      0.01         0.01
  YS02001923YS02001920        0.23      0.23      0.29      0.01         0.01
  YS02001926YS02001923        0.01      0.01      0.02      0.01         0.01
  YS02001929YS02001926        0.01      0.01      0.02      0.01         0.01
  YS02006553YS02006556        0.50      0.50      0.60      0.01         0.01
  YS02006556YS02006558        0.55      0.55      0.61      0.01         0.01
  YS02006558YS02006561        0.31      0.49      0.31      0.68         0.31
  YS02006561YS02001783        0.24      0.24      0.40      0.01         0.01
  YS02163301YS02001633        0.68      0.68      0.71      0.01         0.01
  YS02163601YS02164001        0.64      0.64      0.72      0.06         0.01
  YS02164001YS02001641        0.63      0.64      0.63      0.60         0.51
  YSB1154YSB6556              0.54      0.54      0.65      0.01         0.01
  YSB1171HS02004479           0.45      0.45      0.66      0.01         0.01
  YSB1174YSB1171              0.59      0.59      0.88      0.01         0.01
  YSB6556YSB1171              0.54      0.54      1.03      0.01         0.01
  
  
  ***************
  Pumping Summary
  ***************
  
  ---------------------------------------------------------------------------------------------------------
                                                  Min       Avg       Max     Total     Power    % Time Off
                        Percent   Number of      Flow      Flow      Flow    Volume     Usage    Pump Curve
  Pump                 Utilized   Start-Ups       LPS       LPS       LPS  10^6 ltr     Kw-hr    Low   High
  ---------------------------------------------------------------------------------------------------------
  CC-R1                   13.85           7      0.00    683.00    683.00     2.725     50.91    0.0    8.3
  CC-R2                    8.66           7      0.00    683.00    683.00     1.704     32.00    0.0   12.9
  CC-S1                   41.94          29      0.00    200.00    200.00     2.416     16.18    0.0    0.0
  CC-S2                   43.82          15      0.00    200.00    200.00     2.524     16.89    0.0    0.0
  JK-R1                    4.90          19      0.00   1000.00   1000.00     1.412     13.96    0.0    0.0
  JK-R2                    2.48          12      0.00   1000.00   1000.00     0.714      5.98    0.0    0.0
  JK-S                    14.83          33      0.00    300.00    300.00     1.281     21.91    0.0    0.0
  XR-1                    97.91           2      0.00     95.00     95.00     2.679      9.64    0.0    0.0
  XR-2                    93.95           2      0.00     95.00     95.00     2.571      8.80    0.0    0.0
  XR-3                     0.00           1      0.00     95.00     95.00     0.000      0.00    0.0    0.0
  XR-4                     0.00           1      0.00     95.00     95.00     0.000      0.00    0.0    0.0
  

  Analysis begun on:  Mon Feb 27 13:40:22 2023
  Analysis ended on:  Mon Feb 27 13:40:25 2023
  Total elapsed time: 00:00:03