
  OWA STORM WATER MANAGEMENT MODEL - VERSION v5.1.14 (OWA 2023-01-25)
  --------------------------------------------------------------

  WARNING 04: minimum elevation drop used for Conduit WS02004404WS02004405
  WARNING 03: negative offset ignored for Link YS02001904YS02001907
  
  *********************************************************
  NOTE: The summary statistics displayed in this report are
  based on results found at every computational time step,  
  not just on results from each reporting time step.
  *********************************************************
  
  ****************
  Analysis Options
  ****************
  Flow Units ............... LPS
  Process Models:
    Rainfall/Runoff ........ YES
    RDII ................... NO
    Snowmelt ............... NO
    Groundwater ............ NO
    Flow Routing ........... YES
    Ponding Allowed ........ NO
    Water Quality .......... NO
  Infiltration Method ...... HORTON
  Flow Routing Method ...... DYNWAVE
  Surcharge Method ......... EXTRAN
  Starting Date ............ 08/28/2015 08:00:00
  Ending Date .............. 08/28/2015 16:00:00
  Antecedent Dry Days ...... 8.0
  Report Time Step ......... 00:01:00
  Wet Time Step ............ 00:01:00
  Dry Time Step ............ 00:01:00
  Routing Time Step ........ 30.00 sec
  Variable Time Step ....... YES
  Maximum Trials ........... 8
  Number of Threads ........ 1
  Head Tolerance ........... 0.001500 m
  
  
  **************************        Volume         Depth
  Runoff Quantity Continuity     hectare-m            mm
  **************************     ---------       -------
  Total Precipitation ......         3.068        50.640
  Evaporation Loss .........         0.000         0.000
  Infiltration Loss ........         0.236         3.890
  Surface Runoff ...........         2.772        45.755
  Final Storage ............         0.061         1.007
  Continuity Error (%) .....        -0.023
  
  
  **************************        Volume        Volume
  Flow Routing Continuity        hectare-m      10^6 ltr
  **************************     ---------     ---------
  Dry Weather Inflow .......         0.630         6.296
  Wet Weather Inflow .......         2.772        27.717
  Groundwater Inflow .......         0.000         0.000
  RDII Inflow ..............         0.000         0.000
  External Inflow ..........         0.105         1.045
  External Outflow .........         2.280        22.802
  Flooding Loss ............         1.218        12.180
  Evaporation Loss .........         0.000         0.000
  Exfiltration Loss ........         0.000         0.000
  Initial Stored Volume ....         0.303         3.031
  Final Stored Volume ......         0.322         3.221
  Continuity Error (%) .....        -0.298
  
  
  *************************
  Highest Continuity Errors
  *************************
  Node YS02001884 (5.14%)
  Node YS02001583 (-4.41%)
  Node HS02004842 (2.02%)
  Node WS02006256 (-1.77%)
  Node HS02004817 (1.15%)
  
  
  ***************************
  Time-Step Critical Elements
  ***************************
  Link WS02006252WS02006251 (28.55%)
  Link WS02006280WS02006229 (26.82%)
  Link WS02006238WS02006235 (17.91%)
  Link WS02004404WS02004405 (5.77%)
  Link YS02001791YS02001793 (4.89%)
  
  
  ********************************
  Highest Flow Instability Indexes
  ********************************
  Link WS02006113WS02006111 (37)
  Link WS02006111WS02006112 (21)
  Link WS02006238WS02006235 (20)
  Link WS02006256WS02006235 (18)
  Link WS02006252WS02006251 (16)
  
  
  *************************
  Routing Time Step Summary
  *************************
  Minimum Time Step           :     0.01 sec
  Average Time Step           :     1.87 sec
  Maximum Time Step           :     6.46 sec
  Percent in Steady State     :    -0.00
  Average Iterations per Step :     3.29
  Percent Not Converging      :    13.12
  
  
  ***************************
  Subcatchment Runoff Summary
  ***************************
  
  ------------------------------------------------------------------------------------------------------------------------------
                            Total      Total      Total      Total     Imperv       Perv      Total       Total     Peak  Runoff
                           Precip      Runon       Evap      Infil     Runoff     Runoff     Runoff      Runoff   Runoff   Coeff
  Subcatchment                 mm         mm         mm         mm         mm         mm         mm    10^6 ltr      LPS
  ------------------------------------------------------------------------------------------------------------------------------
  sub0                      50.64       0.00       0.00       0.96      45.85       2.59      48.43        0.04    31.57   0.956
  sub1                      50.64       0.00       0.00       1.65      43.82       3.92      47.74        0.32   216.01   0.943
  sub10                     50.64       0.00       0.00       1.16      45.31       2.89      48.20        0.53   368.47   0.952
  sub11                     50.64       0.00       0.00       1.14      45.33       2.92      48.24        0.56   409.04   0.953
  sub12                     50.64       0.00       0.00       1.85      42.88       4.74      47.62        0.42   327.28   0.940
  sub14                     50.64       0.00       0.00       1.30      44.82       3.26      48.08        0.46   326.36   0.949
  sub15                     50.64       0.00       0.00       5.19      34.48      10.00      44.48        0.77   505.57   0.878
  sub16                     50.64       0.00       0.00       5.34      33.02      11.37      44.39        0.46   341.26   0.877
  sub17                     50.64       0.00       0.00       5.21      33.51      10.99      44.51        0.38   277.09   0.879
  sub2                      50.64       0.00       0.00       7.42      31.00      11.31      42.31        0.39   222.22   0.836
  sub22                     50.64       0.00       0.00       7.89      28.08      13.89      41.97        2.65  1694.59   0.829
  sub23                     50.64       0.00       0.00       6.42      31.04      12.32      43.36        2.07  1403.25   0.856
  sub3                      50.64       0.00       0.00       8.04      30.96      10.70      41.66        0.94   478.74   0.823
  sub4                      50.64       0.00       0.00       1.86      43.65       3.71      47.36        0.99   527.70   0.935
  sub5                      50.64       0.00       0.00       1.01      45.79       2.54      48.33        0.55   372.34   0.954
  sub60                     50.64       0.00       0.00       1.75      43.36       4.33      47.69        0.63   463.96   0.942
  sub61                     50.64       0.00       0.00       2.54      40.90       6.07      46.97        0.86   644.49   0.927
  sub62                     50.64       0.00       0.00       1.16      45.30       2.89      48.19        1.32   902.71   0.952
  sub63                     50.64       0.00       0.00       4.75      34.98       9.94      44.93        1.02   725.78   0.887
  sub64                     50.64       0.00       0.00       2.39      41.84       5.21      47.04        1.13   733.19   0.929
  sub65                     50.64       0.00       0.00       2.07      42.80       4.51      47.32        1.30   818.32   0.934
  sub66                     50.64       0.00       0.00       5.90      34.88       8.78      43.66        2.04  1075.17   0.862
  sub67                     50.64       0.00       0.00       1.11      45.34       2.94      48.28        0.90   695.65   0.953
  sub68                     50.64       0.00       0.00       2.11      42.36       4.98      47.35        1.30   928.03   0.935
  sub69                     50.64       0.00       0.00       1.89      42.93       5.71      48.64        1.80  1088.67   0.961
  sub7                      50.64       0.00       0.00       1.28      44.84       3.28      48.12        0.16   121.03   0.950
  sub70                     50.64       0.00       0.00       6.33      33.26      10.89      44.14        1.28   602.23   0.872
  sub71                     50.64       0.00       0.00       1.20      45.26       2.85      48.11        1.26   791.16   0.950
  sub72                     50.64       0.00       0.00       1.07      45.69       2.48      48.16        0.66   384.79   0.951
  sub8                      50.64       0.00       0.00       1.29      44.83       3.26      48.09        0.31   222.03   0.950
  sub9                      50.64       0.00       0.00       1.30      44.83       3.26      48.09        0.23   165.91   0.950
  
  
  ******************
  Node Depth Summary
  ******************
  
  ---------------------------------------------------------------------------------
                                 Average  Maximum  Maximum  Time of Max    Reported
                                   Depth    Depth      HGL   Occurrence   Max Depth
  Node                 Type       Meters   Meters   Meters  days hr:min      Meters
  ---------------------------------------------------------------------------------
  HS02004478           JUNCTION     0.17     1.59    10.81     0  02:24        1.58
  HS02004479           JUNCTION     0.24     1.70    10.90     0  02:20        1.67
  HS02004480           JUNCTION     0.20     1.67    10.91     0  02:20        1.63
  HS02004770           JUNCTION     0.21     1.42    11.25     0  02:16        1.42
  HS02004777           JUNCTION     0.24     1.48    11.28     0  02:17        1.45
  HS02004785           JUNCTION     0.14     1.49    11.39     0  02:17        1.34
  HS02004788           JUNCTION     0.11     1.42    11.32     0  02:17        1.35
  HS02004792           JUNCTION     0.15     1.60    11.12     0  02:15        1.60
  HS02004799           JUNCTION     0.26     1.76    10.97     0  02:20        1.76
  HS02004802           JUNCTION     0.26     1.80    10.92     0  02:24        1.78
  HS02004807           JUNCTION     0.23     1.92    11.09     0  02:24        1.92
  HS02004817           JUNCTION     0.53     2.39    11.24     0  02:20        2.34
  HS02004824           JUNCTION     0.12     1.99    11.39     0  02:20        1.88
  HS02004830           JUNCTION     0.12     2.01    11.48     0  02:20        1.83
  HS02004837           JUNCTION     0.10     1.95    11.53     0  02:20        1.73
  HS02004842           JUNCTION     0.39     2.22    11.49     0  02:20        2.04
  HS02004848           JUNCTION     0.08     2.04    11.64     0  02:20        1.72
  HS02004852           JUNCTION     0.09     2.12    11.63     0  02:19        1.77
  HS02004856           JUNCTION     0.14     2.07    11.50     0  02:19        1.82
  HS02004862           JUNCTION     0.10     2.00    11.38     0  02:19        1.80
  HS02004870           JUNCTION     0.09     2.10    11.39     0  02:19        1.78
  HS02004876           JUNCTION     0.14     2.17    11.20     0  02:19        1.88
  HS02004881           JUNCTION     0.08     1.94    10.97     0  02:19        1.65
  HS02004901           JUNCTION     0.22     1.42    11.24     0  02:16        1.42
  WS02001211           JUNCTION     0.63     0.81     5.65     0  02:28        0.81
  WS02001212           JUNCTION     0.37     0.57     5.63     0  02:28        0.57
  WS02001213           JUNCTION     0.59     0.87     5.63     0  02:27        0.87
  WS02003059           JUNCTION     0.66     0.94     5.62     0  02:27        0.94
  WS02003060           JUNCTION     0.39     0.68     5.62     0  02:26        0.68
  WS02003066           JUNCTION     0.24     0.45     6.01     0  02:25        0.45
  WS02003067           JUNCTION     0.57     0.89     6.21     0  02:25        0.89
  WS02003069           JUNCTION     0.43     0.78     5.36     0  02:27        0.78
  WS02003072           JUNCTION     0.49     0.81     5.18     0  02:27        0.81
  WS02003073           JUNCTION     0.30     0.51     4.58     0  02:28        0.51
  WS02004138           JUNCTION     0.13     0.14     7.39     0  00:32        0.14
  WS02004139           JUNCTION     0.56     0.74     5.65     0  02:28        0.74
  WS02004401           JUNCTION     0.77     1.85     7.85     0  02:25        1.83
  WS02004402           JUNCTION     0.79     1.80     7.76     0  02:25        1.78
  WS02004403           JUNCTION     0.80     1.75     7.68     0  02:44        1.75
  WS02004404           JUNCTION     0.87     1.79     7.64     0  02:44        1.79
  WS02004405           JUNCTION     0.86     1.67     7.52     0  02:25        1.67
  WS02004406           JUNCTION     0.85     1.58     7.41     0  02:44        1.58
  WS02004407           JUNCTION     0.26     0.92     7.23     0  02:25        0.92
  WS02004409           JUNCTION     0.55     1.64     7.41     0  02:37        1.64
  WS02004410           JUNCTION     0.56     1.29     7.01     0  02:25        1.29
  WS02004411           JUNCTION     0.56     1.20     6.88     0  02:26        1.20
  WS02004412           JUNCTION     0.57     1.10     6.74     0  02:25        1.10
  WS02004413           JUNCTION     0.71     1.14     6.61     0  02:26        1.14
  WS02006109           JUNCTION     0.96     2.64     9.26     0  02:17        2.64
  WS02006110           JUNCTION     0.90     2.39     8.97     0  02:25        2.38
  WS02006111           JUNCTION     0.38     1.73     8.44     0  02:25        1.73
  WS02006112           JUNCTION     0.98     2.37     8.25     0  02:25        2.37
  WS02006113           JUNCTION     0.48     1.81     8.71     0  02:25        1.81
  WS02006115           JUNCTION     0.69     1.95     8.09     0  02:25        1.95
  WS02006116           JUNCTION     0.76     1.94     7.98     0  02:25        1.93
  WS02006228           JUNCTION     1.00     3.03     9.68     0  02:20        3.01
  WS02006229           JUNCTION     1.00     3.24     9.93     0  02:20        3.21
  WS02006230           JUNCTION     0.96     2.65     9.39     0  02:13        2.65
  WS02006231           JUNCTION     0.69     2.24     9.36     0  02:37        2.24
  WS02006232           JUNCTION     0.80     2.18     9.22     0  02:13        2.18
  WS02006234           JUNCTION     0.70     1.96     9.12     0  02:11        1.96
  WS02006235           JUNCTION     0.72     1.95     9.11     0  02:30        1.93
  WS02006238           JUNCTION     0.75     1.95     9.10     0  02:30        1.93
  WS02006239           JUNCTION     0.70     2.03     9.24     0  02:37        2.03
  WS02006240           JUNCTION     0.66     1.99     9.28     0  01:58        1.99
  WS02006242           JUNCTION     0.71     1.55     8.82     0  01:58        1.55
  WS02006243           JUNCTION     0.60     1.48     8.90     0  01:58        1.37
  WS02006245           JUNCTION     0.59     1.41     8.89     0  02:37        1.41
  WS02006247           JUNCTION     0.60     1.41     8.91     0  01:58        1.26
  WS02006248           JUNCTION     0.55     1.10     8.69     0  01:59        1.10
  WS02006249           JUNCTION     0.57     1.09     8.69     0  01:59        1.09
  WS02006251           JUNCTION     0.64     2.21     9.88     0  02:19        2.12
  WS02006252           JUNCTION     0.44     1.50     9.74     0  00:00        1.50
  WS02006253           JUNCTION     0.69     3.52    11.16     0  02:00        2.94
  WS02006256           JUNCTION     1.03     2.35     9.28     0  00:00        2.35
  WS02006280           JUNCTION     0.22     1.76    10.03     0  02:20        1.73
  WS02006284           JUNCTION     0.48     1.96    10.36     0  02:20        1.94
  WS02006287           JUNCTION     0.22     1.74    10.69     0  02:24        1.73
  WSF200               JUNCTION     0.24     0.52     5.75     0  02:25        0.52
  YS02001580           JUNCTION     0.05     1.05     9.59     0  02:16        1.05
  YS02001583           JUNCTION     0.08     1.14     9.64     0  02:16        0.82
  YS02001586           JUNCTION     0.14     1.13     9.30     0  02:16        1.13
  YS02001590           JUNCTION     0.23     1.39     9.25     0  02:16        1.37
  YS02001593           JUNCTION     0.16     1.33     9.20     0  02:16        1.31
  YS02001596           JUNCTION     0.22     1.68     9.10     0  02:16        1.65
  YS02001600           JUNCTION     0.27     1.87     9.00     0  02:16        1.86
  YS02001601           JUNCTION     0.46     2.06     8.90     0  02:15        2.06
  YS02001602           JUNCTION     0.38     1.87     8.77     0  02:16        1.87
  YS02001605           JUNCTION     0.35     1.78     8.68     0  02:20        1.78
  YS02001607           JUNCTION     0.36     1.68     8.53     0  02:37        1.68
  YS02001610           JUNCTION     0.40     1.68     8.48     0  02:19        1.68
  YS02001613           JUNCTION     0.36     1.67     8.51     0  02:37        1.66
  YS02001616           JUNCTION     0.29     1.61     8.52     0  02:37        1.61
  YS02001619           JUNCTION     0.27     1.60     8.53     0  02:37        1.60
  YS02001622           JUNCTION     0.26     1.62     8.52     0  02:37        1.62
  YS02001625           JUNCTION     0.51     1.78     8.38     0  02:19        1.78
  YS02001629           JUNCTION     0.37     1.85     8.40     0  02:20        1.85
  YS02001633           JUNCTION     0.44     2.08     8.53     0  02:44        2.08
  YS02001641           JUNCTION     0.43     2.08     8.51     0  02:37        2.04
  YS02001644           JUNCTION     0.43     1.92     8.35     0  02:21        1.92
  YS02001647           JUNCTION     0.23     1.75     8.36     0  02:24        1.73
  YS02001649           JUNCTION     0.26     1.96     8.35     0  02:24        1.92
  YS02001652           JUNCTION     0.17     1.81     8.41     0  02:24        1.74
  YS02001655           JUNCTION     0.13     1.75     8.60     0  02:20        1.52
  YS02001658           JUNCTION     0.09     1.52     8.67     0  02:21        1.25
  YS02001661           JUNCTION     0.13     1.20     8.60     0  02:24        1.02
  YS02001664           JUNCTION     0.04     0.51     8.43     0  02:23        0.47
  YS02001745           JUNCTION     0.05     0.76     8.27     0  02:25        0.75
  YS02001748           JUNCTION     0.08     1.51     8.59     0  02:21        1.18
  YS02001751           JUNCTION     0.11     1.51     8.39     0  02:21        1.37
  YS02001754           JUNCTION     0.15     1.66     8.27     0  02:22        1.62
  YS02001757           JUNCTION     0.29     1.98     8.25     0  02:24        1.96
  YS02001759           JUNCTION     0.24     1.96     8.33     0  02:24        1.94
  YS02001762           JUNCTION     0.23     1.94     8.34     0  02:24        1.91
  YS02001765           JUNCTION     0.21     1.90     8.35     0  02:24        1.88
  YS02001767           JUNCTION     0.21     1.88     8.37     0  02:24        1.86
  YS02001770           JUNCTION     0.22     1.91     8.41     0  02:20        1.91
  YS02001774           JUNCTION     0.28     1.97     8.39     0  02:24        1.96
  YS02001779           JUNCTION     0.13     1.68     8.37     0  02:20        1.68
  YS02001783           JUNCTION     0.19     1.25     7.39     0  02:20        1.23
  YS02001784           JUNCTION     0.21     1.20     7.27     0  02:37        1.12
  YS02001786           JUNCTION     0.18     0.88     6.91     0  02:20        0.87
  YS02001788           JUNCTION     0.13     0.62     6.60     0  02:24        0.62
  YS02001790           JUNCTION     0.15     0.73     6.37     0  02:24        0.72
  YS02001791           JUNCTION     0.10     0.44     5.91     0  02:22        0.42
  YS02001793           JUNCTION     0.05     0.29     5.13     0  02:31        0.29
  YS02001882           JUNCTION     0.24     1.73     8.44     0  02:20        1.65
  YS02001884           JUNCTION     0.33     1.81     8.42     0  02:20        1.75
  YS02001887           JUNCTION     0.40     1.84     8.38     0  02:20        1.82
  YS02001890           JUNCTION     0.43     1.81     8.32     0  02:20        1.81
  YS02001895           JUNCTION     0.21     1.58     8.33     0  02:20        1.56
  YS02001898           JUNCTION     0.22     1.59     8.33     0  02:20        1.56
  YS02001901           JUNCTION     0.33     1.70     8.31     0  02:20        1.68
  YS02001904           JUNCTION     0.31     1.65     8.28     0  02:20        1.63
  YS02001907           JUNCTION     0.62     1.96     8.25     0  02:20        1.96
  YS02001910           JUNCTION     0.42     1.98     8.49     0  02:21        1.98
  YS02001915           JUNCTION     0.24     1.92     8.64     0  02:21        1.92
  YS02001918           JUNCTION     0.12     1.81     8.88     0  02:21        1.77
  YS02001920           JUNCTION     0.20     2.04     9.05     0  02:21        1.92
  YS02001923           JUNCTION     0.09     1.96     9.22     0  02:21        1.75
  YS02001926           JUNCTION     0.13     1.90     9.35     0  02:21        1.79
  YS02001929           JUNCTION     0.06     1.78     9.47     0  02:21        1.78
  YS02006553           JUNCTION     0.62     2.01     8.29     0  02:37        1.98
  YS02006556           JUNCTION     0.60     1.97     8.28     0  02:37        1.96
  YS02006558           JUNCTION     0.64     2.00     8.27     0  02:25        2.00
  YS02006561           JUNCTION     0.12     0.93     7.59     0  02:20        0.89
  YS02163301           JUNCTION     0.39     1.96     8.48     0  02:37        1.95
  YS02163601           JUNCTION     0.48     2.08     8.48     0  02:37        2.08
  YS02164001           JUNCTION     0.42     2.10     8.56     0  02:37        2.10
  YSB1154              JUNCTION     0.37     1.92    10.97     0  02:25        1.92
  YSB1171              JUNCTION     0.51     1.95    10.85     0  02:20        1.95
  YSB1174              JUNCTION     0.32     1.80    10.91     0  02:25        1.80
  YSB6556              JUNCTION     0.27     1.74    10.91     0  02:25        1.74
  CC-1                 OUTFALL      0.00     0.00     0.00     0  00:00        0.00
  CC-2                 OUTFALL      0.00     0.00     0.00     0  00:00        0.00
  JK-1                 OUTFALL      0.00     0.00     0.00     0  00:00        0.00
  JK-2                 OUTFALL      0.00     0.00     0.00     0  00:00        0.00
  WSC                  OUTFALL      0.30     0.51     1.18     0  02:28        0.51
  CC-storage           STORAGE      0.80     1.64     7.14     0  02:43        1.64
  JK-storage           STORAGE      1.36     4.22     5.02     0  02:30        4.16
  XR-storage           STORAGE      7.89     9.26     7.26     0  08:00        9.26
  
  
  *******************
  Node Inflow Summary
  *******************
  
  -------------------------------------------------------------------------------------------------
                                  Maximum  Maximum                  Lateral       Total        Flow
                                  Lateral    Total  Time of Max      Inflow      Inflow     Balance
                                   Inflow   Inflow   Occurrence      Volume      Volume       Error
  Node                 Type           LPS      LPS  days hr:min    10^6 ltr    10^6 ltr     Percent
  -------------------------------------------------------------------------------------------------
  HS02004478           JUNCTION      0.00  2302.39     0  02:25           0         7.3      -0.015
  HS02004479           JUNCTION      0.00   406.87     0  02:20           0       0.708       0.119
  HS02004480           JUNCTION      0.00  2083.89     0  02:18           0        5.44       0.048
  HS02004770           JUNCTION   1403.25  1403.25     0  02:25        2.07        2.28       0.146
  HS02004777           JUNCTION      0.03   729.86     0  02:17    0.000864        1.62       0.319
  HS02004785           JUNCTION      0.15   737.09     0  02:16     0.00432        1.62       0.024
  HS02004788           JUNCTION    507.24   807.64     0  02:17       0.813        2.43       0.020
  HS02004792           JUNCTION   1694.87  2483.52     0  02:25        2.66        5.09       0.011
  HS02004799           JUNCTION    326.36  1731.63     0  02:18       0.458        4.84       0.054
  HS02004802           JUNCTION      0.00  1197.12     0  02:25           0        1.93       0.210
  HS02004807           JUNCTION    409.04  1196.88     0  02:25       0.561        1.97       0.219
  HS02004817           JUNCTION      0.60   799.26     0  02:26      0.0173        1.46       1.167
  HS02004824           JUNCTION    527.75   799.02     0  02:26       0.989         1.6       0.044
  HS02004830           JUNCTION      0.15   607.78     0  02:18     0.00432       0.767       0.185
  HS02004837           JUNCTION    374.82   803.27     0  02:18       0.715        1.06       0.085
  HS02004842           JUNCTION      0.00   799.02     0  02:18           0       0.651       2.063
  HS02004848           JUNCTION    478.74  1053.85     0  02:20       0.938        1.43       0.018
  HS02004852           JUNCTION      0.00  1023.58     0  02:19           0        1.29      -0.012
  HS02004856           JUNCTION    165.91  1063.99     0  02:19       0.231        1.52       0.095
  HS02004862           JUNCTION    222.42  1186.04     0  02:19         0.4        1.92       0.017
  HS02004870           JUNCTION    222.03  1186.33     0  02:25       0.307        2.23      -0.018
  HS02004876           JUNCTION    216.01  1403.02     0  02:25       0.317        2.55       0.036
  HS02004881           JUNCTION    121.03  1524.39     0  02:25       0.162        2.71       0.023
  HS02004901           JUNCTION    341.26   596.77     0  02:25       0.465       0.698       0.282
  WS02001211           JUNCTION      7.35   207.53     0  02:59       0.212        5.44       0.611
  WS02001212           JUNCTION      0.00   215.25     0  02:59           0        5.41       0.290
  WS02001213           JUNCTION      0.00   219.72     0  02:59           0        5.39       0.334
  WS02003059           JUNCTION      0.00   227.14     0  02:58           0        5.38       0.597
  WS02003060           JUNCTION     16.53  1498.39     0  02:26       0.476        15.5       0.096
  WS02003066           JUNCTION      0.00  1298.44     0  02:25           0        9.69       0.017
  WS02003067           JUNCTION      0.00  1297.44     0  02:25           0        9.69       0.046
  WS02003069           JUNCTION      0.32  1498.42     0  02:26     0.00922        15.5       0.101
  WS02003072           JUNCTION      0.00  1498.10     0  02:27           0        15.5       0.137
  WS02003073           JUNCTION      1.82  1500.16     0  02:27      0.0524        15.5       0.143
  WS02004138           JUNCTION      0.00   380.00     0  00:00           0        5.25       0.054
  WS02004139           JUNCTION      0.32   190.32     0  00:32     0.00924        5.26       0.509
  WS02004401           JUNCTION      0.00  1298.92     0  02:25           0         9.8       0.110
  WS02004402           JUNCTION      0.00  1298.65     0  02:25           0        9.79       0.110
  WS02004403           JUNCTION      0.00  1298.69     0  02:25           0        9.78       0.109
  WS02004404           JUNCTION      0.16  1299.51     0  02:25     0.00467        9.77       0.092
  WS02004405           JUNCTION      0.04  1299.43     0  02:25      0.0011        9.76       0.126
  WS02004406           JUNCTION      0.00  1299.86     0  02:25           0        9.75       0.221
  WS02004407           JUNCTION      0.00  1299.70     0  02:25           0        9.73       0.016
  WS02004409           JUNCTION      0.00  1297.41     0  02:25           0        9.73       0.036
  WS02004410           JUNCTION      0.00  1297.65     0  02:25           0        9.73       0.055
  WS02004411           JUNCTION      0.00  1297.56     0  02:25           0        9.72       0.066
  WS02004412           JUNCTION      0.00  1297.57     0  02:25           0        9.71       0.085
  WS02004413           JUNCTION      0.00  1297.39     0  02:25           0        9.71       0.150
  WS02006109           JUNCTION      1.23  1288.36     0  02:25      0.0354        9.65       0.107
  WS02006110           JUNCTION      0.00  1129.33     0  02:37           0        9.46       0.087
  WS02006111           JUNCTION      0.00  1127.71     0  02:37           0        9.45       0.006
  WS02006112           JUNCTION    277.09  1298.09     0  02:25       0.382        9.83       0.209
  WS02006113           JUNCTION      0.00  1129.11     0  02:37           0        9.45       0.032
  WS02006115           JUNCTION      0.00  1298.62     0  02:25           0        9.81       0.075
  WS02006116           JUNCTION      0.00  1300.00     0  02:25           0         9.8       0.045
  WS02006228           JUNCTION      0.00  1287.38     0  02:25           0        9.62       0.041
  WS02006229           JUNCTION      0.00  2304.05     0  02:25           0        11.4       0.074
  WS02006230           JUNCTION     10.28  1026.22     0  02:25       0.296        5.97       0.150
  WS02006231           JUNCTION      0.00   559.90     0  04:20           0        4.98      -0.043
  WS02006232           JUNCTION      0.00   558.72     0  04:20           0        4.99       0.132
  WS02006234           JUNCTION      0.00   553.83     0  04:20           0        4.98      -0.148
  WS02006235           JUNCTION      0.00   548.97     0  04:20           0        5.05       0.173
  WS02006238           JUNCTION      0.00   427.09     0  03:42           0        4.76      -0.150
  WS02006239           JUNCTION      0.00   426.82     0  03:42           0        4.72      -0.174
  WS02006240           JUNCTION      0.00   426.68     0  03:42           0         4.7      -0.000
  WS02006242           JUNCTION      0.00   426.87     0  03:42           0         4.7       0.003
  WS02006243           JUNCTION      0.00   426.94     0  03:42           0        4.37      -0.275
  WS02006245           JUNCTION      0.00   426.84     0  03:42           0        4.38       0.256
  WS02006247           JUNCTION      0.00   426.67     0  03:42           0        4.38       0.012
  WS02006248           JUNCTION      0.00   426.11     0  03:42           0        4.59      -0.014
  WS02006249           JUNCTION      0.00  1348.24     0  02:25           0        7.17       0.106
  WS02006251           JUNCTION      0.08  1556.51     0  02:25     0.00222        7.32      -0.004
  WS02006252           JUNCTION      0.00   608.85     0  02:25           0        4.84      -0.258
  WS02006253           JUNCTION     31.57  1555.73     0  02:25      0.0392        2.84       0.031
  WS02006256           JUNCTION      0.00   300.00     0  00:00           0        1.12      -1.736
  WS02006280           JUNCTION      0.00  2303.50     0  02:25           0        7.28       0.007
  WS02006284           JUNCTION      0.10  2303.24     0  02:25     0.00275        7.28       0.011
  WS02006287           JUNCTION      0.00  2303.61     0  02:25           0        7.28       0.012
  WSF200               JUNCTION      0.00  1298.61     0  02:25           0        9.69       0.008
  YS02001580           JUNCTION      0.00    83.19     0  02:16           0     0.00384      -2.578
  YS02001583           JUNCTION      0.00   144.04     0  02:16           0      0.0151      -4.219
  YS02001586           JUNCTION    602.23   602.23     0  02:26        1.28        1.29       0.095
  YS02001590           JUNCTION      0.00   323.20     0  02:37           0         1.1      -0.035
  YS02001593           JUNCTION      0.00   318.90     0  02:37           0         1.1       0.017
  YS02001596           JUNCTION      0.00   318.21     0  02:31           0         1.1      -0.003
  YS02001600           JUNCTION      0.00   318.08     0  02:33           0         1.1       0.031
  YS02001601           JUNCTION   1088.67  1406.06     0  02:26         1.8         2.9       0.030
  YS02001602           JUNCTION      0.00   505.68     0  02:15           0        1.97       0.026
  YS02001605           JUNCTION      0.00   505.76     0  02:15           0        1.89       0.028
  YS02001607           JUNCTION      0.00   505.32     0  02:15           0        1.89       0.103
  YS02001610           JUNCTION      0.00   536.73     0  02:27           0        1.96       0.119
  YS02001613           JUNCTION      0.00   504.15     0  02:15           0        1.65       0.103
  YS02001616           JUNCTION      0.00   504.51     0  02:15           0        1.65       0.031
  YS02001619           JUNCTION   1075.17  1075.17     0  02:26        2.04        3.61       0.003
  YS02001622           JUNCTION      0.00   920.03     0  02:19           0        3.54       0.004
  YS02001625           JUNCTION      0.00  1177.01     0  02:26           0        3.64       0.254
  YS02001629           JUNCTION      0.00   919.36     0  02:19           0        2.99       0.024
  YS02001633           JUNCTION    818.52  1341.07     0  02:19        1.31        4.18       0.085
  YS02001641           JUNCTION      0.00  1337.68     0  02:19           0        4.07       0.067
  YS02001644           JUNCTION    733.23  1715.23     0  02:19        1.13        5.19       0.064
  YS02001647           JUNCTION      0.00  1715.35     0  02:19           0           5       0.008
  YS02001649           JUNCTION      0.00  1894.89     0  02:18           0        6.02       0.001
  YS02001652           JUNCTION      0.00   758.32     0  02:25           0        1.03      -0.091
  YS02001655           JUNCTION      0.15   757.15     0  02:25     0.00443        1.03       0.034
  YS02001658           JUNCTION      0.00   756.58     0  02:25           0        1.02      -0.005
  YS02001661           JUNCTION      0.00   870.65     0  02:24           0        1.02      -0.030
  YS02001664           JUNCTION    725.78   725.78     0  02:25        1.02        1.02      -0.005
  YS02001745           JUNCTION    463.97   463.97     0  02:25       0.627       0.627       0.213
  YS02001748           JUNCTION      0.04   517.91     0  02:21      0.0013       0.627      -0.372
  YS02001751           JUNCTION      0.01   476.08     0  02:25    0.000317       0.636       0.123
  YS02001754           JUNCTION      0.26   474.95     0  02:25     0.00749        0.65      -0.251
  YS02001757           JUNCTION      0.00  3136.11     0  02:23           0         8.8       0.018
  YS02001759           JUNCTION    644.53  1273.45     0  02:24       0.863        2.14      -0.002
  YS02001762           JUNCTION      0.00   694.49     0  02:23           0        1.27      -0.003
  YS02001765           JUNCTION      0.00   695.07     0  02:23           0        1.27       0.007
  YS02001767           JUNCTION      0.54   694.60     0  02:23      0.0154        1.27       0.005
  YS02001770           JUNCTION    902.86   902.86     0  02:25        1.32        1.37       0.006
  YS02001774           JUNCTION      0.00   326.32     0  02:19           0       0.127       0.985
  YS02001779           JUNCTION      0.01   330.01     0  02:19    0.000144       0.084      -0.735
  YS02001783           JUNCTION      0.00  1161.66     0  02:24           0         3.4       0.007
  YS02001784           JUNCTION      1.06  1163.15     0  02:24      0.0305        3.43       0.018
  YS02001786           JUNCTION      0.06  1162.99     0  02:24     0.00162        3.43       0.017
  YS02001788           JUNCTION      0.07  1163.05     0  02:24     0.00204        3.43       0.009
  YS02001790           JUNCTION      0.15  1169.14     0  02:25     0.00446        3.44       0.033
  YS02001791           JUNCTION      0.00  1294.70     0  02:24           0        3.44      -0.034
  YS02001793           JUNCTION      0.00  1247.52     0  02:22           0        3.44       0.007
  YS02001882           JUNCTION      0.00    36.06     0  02:17           0      0.0126       4.957
  YS02001884           JUNCTION      0.00    67.69     0  02:17           0      0.0484       5.417
  YS02001887           JUNCTION    696.10   698.43     0  02:25       0.911       0.944       0.463
  YS02001890           JUNCTION      0.00   698.85     0  02:25           0       0.904       0.568
  YS02001895           JUNCTION      0.00   516.89     0  02:27           0       0.859       0.167
  YS02001898           JUNCTION      0.00   516.92     0  02:27           0       0.858       0.029
  YS02001901           JUNCTION      0.00   516.84     0  02:27           0        0.86       0.369
  YS02001904           JUNCTION      0.00   516.89     0  02:27           0       0.864       0.343
  YS02001907           JUNCTION      0.00  1733.08     0  02:25           0        2.86       0.632
  YS02001910           JUNCTION      0.00  1219.65     0  02:25           0           2       0.358
  YS02001915           JUNCTION    791.18  1219.57     0  02:25        1.26        2.04       0.084
  YS02001918           JUNCTION      0.00   449.46     0  02:21           0       0.803       0.025
  YS02001920           JUNCTION      2.87   448.25     0  02:21      0.0827       0.789       0.132
  YS02001923           JUNCTION      0.04   422.65     0  02:21     0.00109       0.691      -0.113
  YS02001926           JUNCTION      0.05   441.35     0  02:20      0.0015       0.672      -0.050
  YS02001929           JUNCTION    384.79   384.79     0  02:26       0.662       0.662      -0.116
  YS02006553           JUNCTION      0.00   838.94     0  02:37           0        2.12       0.561
  YS02006556           JUNCTION      0.00   840.67     0  02:37           0        2.12       0.391
  YS02006558           JUNCTION    928.91  1161.48     0  02:23        1.33        3.43       0.106
  YS02006561           JUNCTION      0.00  1162.27     0  02:23           0         3.4      -0.001
  YS02163301           JUNCTION      0.00   918.88     0  02:19           0        2.98       0.051
  YS02163601           JUNCTION      0.11  1340.79     0  02:19     0.00317        4.07       0.122
  YS02164001           JUNCTION      0.00  1339.43     0  02:19           0        4.06       0.053
  YSB1154              JUNCTION    372.34   372.34     0  02:25       0.548       0.548       0.270
  YSB1171              JUNCTION      0.00   871.75     0  02:25           0        1.01       0.630
  YSB1174              JUNCTION    327.28   327.28     0  02:25       0.416       0.417       0.302
  YSB6556              JUNCTION      0.00   372.73     0  02:25           0       0.549       0.216
  CC-1                 OUTFALL       0.00   683.00     0  00:00           0        2.84       0.000
  CC-2                 OUTFALL       0.00   683.00     0  00:00           0        2.03       0.000
  JK-1                 OUTFALL       0.00  1000.00     0  00:00           0        1.32       0.000
  JK-2                 OUTFALL       0.00  1000.00     0  00:00           0        1.12       0.000
  WSC                  OUTFALL       0.00  1500.79     0  02:28           0        15.5       0.000
  CC-storage           STORAGE       0.00  3136.85     0  02:23           0          11      -0.251
  JK-storage           STORAGE       0.00  1241.14     0  02:27           0        3.59      -0.481
  XR-storage           STORAGE     200.00   200.00     0  00:00        5.76        6.36       0.001
  
  
  **********************
  Node Surcharge Summary
  **********************
  
  Surcharging occurs when water rises above the top of the highest conduit.
  ---------------------------------------------------------------------
                                               Max. Height   Min. Depth
                                   Hours       Above Crown    Below Rim
  Node                 Type      Surcharged         Meters       Meters
  ---------------------------------------------------------------------
  HS02004478           JUNCTION        0.36          0.665        0.275
  HS02004479           JUNCTION        0.48          0.898        0.152
  HS02004480           JUNCTION        0.51          0.963        0.137
  HS02004770           JUNCTION        0.43          0.720        0.000
  HS02004777           JUNCTION        0.43          0.780        0.000
  HS02004785           JUNCTION        0.39          0.790        0.000
  HS02004788           JUNCTION        0.38          0.720        0.000
  HS02004792           JUNCTION        0.48          0.900        0.000
  HS02004799           JUNCTION        0.60          1.060        0.000
  HS02004802           JUNCTION        0.53          1.086        0.124
  HS02004807           JUNCTION        0.51          1.220        0.000
  HS02004817           JUNCTION        1.01          1.695        0.045
  HS02004824           JUNCTION        0.39          1.289        0.021
  HS02004830           JUNCTION        0.36          1.308        0.022
  HS02004837           JUNCTION        0.32          1.246        0.094
  HS02004842           JUNCTION        0.45          1.520        0.000
  HS02004848           JUNCTION        0.29          1.339        0.031
  HS02004852           JUNCTION        0.31          1.420        0.000
  HS02004856           JUNCTION        0.31          1.300        0.000
  HS02004862           JUNCTION        0.34          1.300        0.000
  HS02004870           JUNCTION        0.35          1.400        0.000
  HS02004876           JUNCTION        0.42          1.473        0.087
  HS02004881           JUNCTION        0.40          1.236        0.214
  HS02004901           JUNCTION        0.43          0.720        0.000
  WS02004401           JUNCTION        1.36          0.848        0.812
  WS02004402           JUNCTION        1.37          0.798        0.942
  WS02004403           JUNCTION        1.37          0.748        1.282
  WS02004404           JUNCTION        1.52          0.785        1.995
  WS02004405           JUNCTION        1.47          0.673        2.127
  WS02004406           JUNCTION        1.44          0.581        1.869
  WS02004409           JUNCTION        0.86          0.642        1.718
  WS02004410           JUNCTION        0.80          0.294        2.246
  WS02004411           JUNCTION        0.72          0.202        2.328
  WS02004412           JUNCTION        0.63          0.103        2.207
  WS02004413           JUNCTION        1.08          0.144        2.056
  WS02006109           JUNCTION        2.73          1.820        0.000
  WS02006110           JUNCTION        1.83          1.480        0.370
  WS02006111           JUNCTION        1.03          0.923        0.947
  WS02006112           JUNCTION        2.07          1.367        0.313
  WS02006113           JUNCTION        1.07          1.014        0.916
  WS02006115           JUNCTION        1.19          0.940        1.310
  WS02006116           JUNCTION        1.21          0.882        1.408
  WS02006228           JUNCTION        2.68          2.200        0.000
  WS02006229           JUNCTION        0.76          1.055        0.015
  WS02006230           JUNCTION        1.58          1.570        0.000
  WS02006231           JUNCTION        1.79          1.530        0.000
  WS02006232           JUNCTION        2.60          1.480        0.000
  WS02006234           JUNCTION        2.13          1.240        0.000
  WS02006235           JUNCTION        2.25          1.240        0.050
  WS02006238           JUNCTION        2.39          1.233        0.197
  WS02006239           JUNCTION        2.26          1.290        0.000
  WS02006240           JUNCTION        2.27          1.280        0.110
  WS02006242           JUNCTION        2.54          0.820        0.000
  WS02006243           JUNCTION        2.30          0.770        0.000
  WS02006245           JUNCTION        2.28          0.700        0.150
  WS02006247           JUNCTION        2.34          0.701        0.059
  WS02006248           JUNCTION        2.25          0.380        0.000
  WS02006249           JUNCTION        2.31          0.390        0.000
  WS02006251           JUNCTION        1.90          1.180        0.000
  WS02006252           JUNCTION        3.07          1.100        0.000
  WS02006253           JUNCTION        1.90          2.480        0.000
  WS02006256           JUNCTION        7.48          2.050        0.000
  WS02006280           JUNCTION        0.62          0.709        0.071
  WS02006284           JUNCTION        0.54          0.681        0.119
  WS02006287           JUNCTION        0.46          0.739        0.151
  YS02001580           JUNCTION        0.45          0.450        0.000
  YS02001583           JUNCTION        0.46          0.500        0.000
  YS02001586           JUNCTION        0.57          0.510        0.000
  YS02001590           JUNCTION        0.64          0.742        0.008
  YS02001593           JUNCTION        0.64          0.713        0.127
  YS02001596           JUNCTION        0.74          0.951        0.119
  YS02001600           JUNCTION        0.88          1.190        0.000
  YS02001601           JUNCTION        1.19          1.440        0.000
  YS02001602           JUNCTION        1.09          1.270        0.000
  YS02001605           JUNCTION        1.04          1.180        0.000
  YS02001607           JUNCTION        0.61          0.680        0.000
  YS02001610           JUNCTION        0.64          0.680        0.000
  YS02001613           JUNCTION        0.61          0.671        0.029
  YS02001616           JUNCTION        0.57          0.610        0.000
  YS02001619           JUNCTION        0.56          0.605        0.005
  YS02001622           JUNCTION        0.56          0.620        0.000
  YS02001625           JUNCTION        0.72          0.780        0.000
  YS02001629           JUNCTION        0.52          0.470        0.000
  YS02001633           JUNCTION        0.74          1.060        0.000
  YS02001641           JUNCTION        0.68          1.076        0.024
  YS02001644           JUNCTION        0.65          0.920        0.000
  YS02001647           JUNCTION        0.47          0.745        0.155
  YS02001649           JUNCTION        0.56          0.960        0.090
  YS02001652           JUNCTION        0.41          0.785        0.345
  YS02001655           JUNCTION        0.29          0.749        0.451
  YS02001658           JUNCTION        0.16          0.525        0.775
  YS02001661           JUNCTION        0.01          0.126        1.264
  YS02001748           JUNCTION        0.12          0.430        0.760
  YS02001751           JUNCTION        0.22          0.508        0.692
  YS02001754           JUNCTION        0.34          0.613        0.537
  YS02001757           JUNCTION        0.62          0.985        0.225
  YS02001759           JUNCTION        0.54          0.964        0.246
  YS02001762           JUNCTION        0.51          0.942        0.208
  YS02001765           JUNCTION        0.47          0.903        0.197
  YS02001767           JUNCTION        0.45          0.880        0.150
  YS02001770           JUNCTION        0.42          0.883        0.037
  YS02001774           JUNCTION        0.49          0.970        0.080
  YS02001779           JUNCTION        0.33          0.680        0.000
  YS02001783           JUNCTION        0.42          0.451        1.149
  YS02001784           JUNCTION        0.40          0.400        1.090
  YS02001786           JUNCTION        0.30          0.081        1.349
  YS02001882           JUNCTION        0.37          0.728        0.102
  YS02001884           JUNCTION        0.38          0.746        0.124
  YS02001887           JUNCTION        0.42          0.795        0.155
  YS02001890           JUNCTION        0.43          0.760        0.000
  YS02001895           JUNCTION        0.37          0.583        0.167
  YS02001898           JUNCTION        0.36          0.562        0.178
  YS02001901           JUNCTION        0.40          0.696        0.174
  YS02001904           JUNCTION        0.39          0.653        0.197
  YS02001907           JUNCTION        0.63          0.950        0.000
  YS02001910           JUNCTION        0.45          0.985        0.115
  YS02001915           JUNCTION        0.37          0.921        0.079
  YS02001918           JUNCTION        0.30          0.810        0.000
  YS02001920           JUNCTION        0.31          1.043        0.097
  YS02001923           JUNCTION        0.03          0.751        0.069
  YS02001926           JUNCTION        0.04          0.900        0.000
  YS02001929           JUNCTION        0.01          0.780        0.000
  YS02006553           JUNCTION        0.65          1.009        0.181
  YS02006556           JUNCTION        0.54          0.932        0.418
  YS02006558           JUNCTION        0.53          0.902        0.498
  YS02006561           JUNCTION        0.26          0.131        1.019
  YS02163301           JUNCTION        0.72          0.963        0.067
  YS02163601           JUNCTION        0.77          1.080        0.000
  YS02164001           JUNCTION        0.69          1.100        0.000
  YSB1154              JUNCTION        0.70          1.215        0.185
  YSB1171              JUNCTION        0.70          1.100        0.000
  YSB1174              JUNCTION        0.64          1.099        0.151
  YSB6556              JUNCTION        0.58          1.036        0.064
  
  
  *********************
  Node Flooding Summary
  *********************
  
  Flooding refers to all water that overflows a node, whether it ponds or not.
  --------------------------------------------------------------------------
                                                             Total   Maximum
                                 Maximum   Time of Max       Flood    Ponded
                        Hours       Rate    Occurrence      Volume     Depth
  Node                 Flooded       LPS   days hr:min    10^6 ltr    Meters
  --------------------------------------------------------------------------
  HS02004770              0.28    867.33      0  02:25       0.426     0.000
  HS02004777              0.01     25.89      0  02:17       0.000     0.000
  HS02004785              0.01    108.78      0  02:17       0.000     0.000
  HS02004788              0.01    134.59      0  02:17       0.000     0.000
  HS02004792              0.27   1340.90      0  02:25       0.710     0.000
  HS02004799              0.14    198.81      0  02:25       0.047     0.000
  HS02004807              0.01      7.04      0  02:25       0.000     0.000
  HS02004842              0.01    113.13      0  02:20       0.001     0.000
  HS02004852              0.01    224.04      0  02:19       0.000     0.000
  HS02004856              0.01    145.17      0  02:19       0.000     0.000
  HS02004862              0.01     39.76      0  02:19       0.000     0.000
  HS02004870              0.01    299.53      0  02:19       0.000     0.000
  HS02004901              0.33    596.60      0  02:25       0.483     0.000
  WS02006109              0.32    268.22      0  02:25       0.175     0.000
  WS02006228              0.01      2.25      0  02:20       0.000     0.000
  WS02006230              0.55    573.29      0  02:25       0.722     0.000
  WS02006231              0.01      0.42      0  02:37       0.000     0.000
  WS02006232              0.14      1.16      0  02:37       0.000     0.000
  WS02006234              0.62    128.33      0  02:18       0.202     0.000
  WS02006239              0.01      0.18      0  02:37       0.000     0.000
  WS02006242              0.73    137.64      0  02:46       0.313     0.000
  WS02006243              0.01     57.86      0  01:58       0.000     0.000
  WS02006248              1.01    339.70      0  02:12       1.015     0.000
  WS02006249              1.72   1287.30      0  02:25       3.375     0.000
  WS02006251              0.01      9.10      0  02:19       0.000     0.000
  WS02006252              0.36    608.48      0  02:25       0.378     0.000
  WS02006253              0.01    114.92      0  02:00       0.000     0.000
  WS02006256              1.03    293.94      0  02:30       0.621     0.000
  YS02001580              0.01     13.95      0  02:16       0.000     0.000
  YS02001583              0.01     68.78      0  02:16       0.000     0.000
  YS02001586              0.34    284.56      0  02:26       0.175     0.000
  YS02001600              0.01      1.67      0  02:16       0.000     0.000
  YS02001601              0.51   1008.22      0  02:26       0.926     0.000
  YS02001602              0.41     62.05      0  02:26       0.082     0.000
  YS02001605              0.01      0.22      0  02:20       0.000     0.000
  YS02001607              0.01      0.23      0  02:37       0.000     0.000
  YS02001610              0.36    536.26      0  02:27       0.379     0.000
  YS02001616              0.01      6.06      0  02:37       0.000     0.000
  YS02001622              0.01      0.42      0  02:37       0.000     0.000
  YS02001625              0.33   1176.76      0  02:26       0.754     0.000
  YS02001629              0.08     95.55      0  02:23       0.017     0.000
  YS02001633              0.01      0.65      0  02:44       0.000     0.000
  YS02001644              0.14    652.67      0  02:25       0.186     0.000
  YS02001779              0.11    297.31      0  02:25       0.068     0.000
  YS02001890              0.12    184.94      0  02:25       0.039     0.000
  YS02001907              0.25   1508.77      0  02:25       0.734     0.000
  YS02001918              0.01     58.42      0  02:21       0.000     0.000
  YS02001926              0.01     39.87      0  02:21       0.000     0.000
  YS02001929              0.01    290.30      0  02:21       0.001     0.000
  YS02163601              0.01     20.63      0  02:37       0.000     0.000
  YS02164001              0.01     12.81      0  02:37       0.000     0.000
  YSB1171                 0.20    871.38      0  02:25       0.346     0.000
  
  
  **********************
  Storage Volume Summary
  **********************
  
  --------------------------------------------------------------------------------------------------
                         Average     Avg  Evap Exfil       Maximum     Max    Time of Max    Maximum
                          Volume    Pcnt  Pcnt  Pcnt        Volume    Pcnt     Occurrence    Outflow
  Storage Unit           1000 m3    Full  Loss  Loss       1000 m3    Full    days hr:min        LPS
  --------------------------------------------------------------------------------------------------
  CC-storage               2.226      35     0     0         4.565      71       0  02:43    1783.53
  JK-storage               0.068      23     0     0         0.212      73       0  02:30    2300.00
  XR-storage               0.947      66     0     0         1.111      77       0  08:00     380.00
  
  
  ***********************
  Outfall Loading Summary
  ***********************
  
  -----------------------------------------------------------
                         Flow       Avg       Max       Total
                         Freq      Flow      Flow      Volume
  Outfall Node           Pcnt       LPS       LPS    10^6 ltr
  -----------------------------------------------------------
  CC-1                  15.93    683.00    683.00       2.838
  CC-2                  11.44    683.00    683.00       2.029
  JK-1                   5.71   1000.00   1000.00       1.321
  JK-2                   4.32   1000.00   1000.00       1.124
  WSC                   99.96    615.17   1500.79      15.491
  -----------------------------------------------------------
  System                27.47   3981.17   4858.95      22.802
  
  
  ********************
  Link Flow Summary
  ********************
  
  -----------------------------------------------------------------------------
                                 Maximum  Time of Max   Maximum    Max/    Max/
                                  |Flow|   Occurrence   |Veloc|    Full    Full
  Link                 Type          LPS  days hr:min     m/sec    Flow   Depth
  -----------------------------------------------------------------------------
  1                    CONDUIT   1500.79     0  02:28      3.70    0.52    0.51
  HS02004478WS02006287 CONDUIT   2303.61     0  02:25      2.57    0.64    1.00
  HS02004479HS02004480 CONDUIT    407.11     0  02:20      0.58    0.39    1.00
  HS02004480HS02004478 CONDUIT   2080.41     0  02:18      2.97    8.76    1.00
  HS02004770HS02004777 CONDUIT    729.83     0  02:17      1.04    1.33    1.00
  HS02004777HS02004785 CONDUIT    736.94     0  02:16      1.11    0.91    1.00
  HS02004785HS02004788 CONDUIT    607.43     0  02:37      1.35    4.58    1.00
  HS02004788HS02004792 CONDUIT    835.55     0  02:37      1.45    0.55    1.00
  HS02004792HS02004799 CONDUIT   1572.11     0  02:18      2.25    0.96    1.00
  HS02004799HS02004480 CONDUIT   1729.64     0  02:18      2.47    2.19    1.00
  HS02004802HS02004478 CONDUIT   1198.21     0  02:25      1.71    1.06    1.00
  HS02004807HS02004802 CONDUIT   1197.12     0  02:25      1.71    2.29    1.00
  HS02004817HS02004807 CONDUIT    799.37     0  02:26      1.14    0.47    1.00
  HS02004817HS02004824 CONDUIT    798.66     0  02:26      1.14    0.36    1.00
  HS02004824HS02004830 CONDUIT    607.63     0  02:18      0.88    0.80    1.00
  HS02004830HS02004837 CONDUIT    623.91     0  02:18      0.98    0.62    1.00
  HS02004837HS02004842 CONDUIT    799.02     0  02:18      1.14    0.48    1.00
  HS02004842HS02004848 CONDUIT    798.10     0  02:18      1.26    0.46    1.00
  HS02004848HS02004852 CONDUIT   1023.58     0  02:19      1.59    1.15    1.00
  HS02004852HS02004856 CONDUIT    970.99     0  02:19      1.47    1.11    1.00
  HS02004856HS02004862 CONDUIT   1068.23     0  02:19      1.69    1.07    1.00
  HS02004862HS02004870 CONDUIT   1037.43     0  02:19      1.74    1.12    1.00
  HS02004870HS02004876 CONDUIT   1187.20     0  02:25      1.70    0.79    1.00
  HS02004876HS02004881 CONDUIT   1403.66     0  02:25      2.16   14.93    1.00
  HS02004881HS02006253 CONDUIT   1524.38     0  02:25      2.55    0.30    1.00
  HS02004901HS02004770 CONDUIT    265.75     0  02:34      0.38    1.00    1.00
  WS02001211WS02001212 CONDUIT    215.25     0  02:59      0.54    0.16    0.69
  WS02001212WS02001213 CONDUIT    219.72     0  02:59      1.04    0.34    0.56
  WS02001213WS02003059 CONDUIT    227.14     0  02:58      0.47    0.37    0.89
  WS02003059WS02003060 CONDUIT    234.25     0  02:58      0.66    0.15    0.81
  WS02003060WS02003069 CONDUIT   1498.10     0  02:26      2.08    0.59    0.61
  WS02003066WSF200     CONDUIT   1298.61     0  02:25      3.25    0.22    0.38
  WS02003067WS02003066 CONDUIT   1298.44     0  02:25      2.00    0.42    0.56
  WS02003069WS02003072 CONDUIT   1498.10     0  02:27      1.89    0.72    0.66
  WS02003072WS02003073 CONDUIT   1498.33     0  02:27      2.05    3.24    0.62
  WS02004138WS02004139 CONDUIT    190.00     0  00:32      2.17    0.04    0.41
  WS02004139WS02001211 CONDUIT    200.18     0  02:59      0.54    0.25    0.61
  WS02004401WS02004402 CONDUIT   1298.65     0  02:25      1.65    1.56    1.00
  WS02004402WS02004403 CONDUIT   1298.69     0  02:25      1.65    1.87    1.00
  WS02004403WS02004404 CONDUIT   1299.34     0  02:25      1.65    0.94    1.00
  WS02004404WS02004405 CONDUIT   1299.39     0  02:25      1.65   12.73    1.00
  WS02004405WS02004406 CONDUIT   1299.86     0  02:25      1.66    2.56    1.00
  WS02004406WS02004407 CONDUIT   1299.70     0  02:25      1.76    0.58    0.96
  WS02004407WS02004409 CONDUIT   1297.41     0  02:25      1.83    0.46    0.96
  WS02004409WS02004410 CONDUIT   1297.65     0  02:25      1.65    1.68    1.00
  WS02004410WS02004411 CONDUIT   1297.56     0  02:25      1.65    1.77    1.00
  WS02004411WS02004412 CONDUIT   1297.57     0  02:25      1.65    1.84    1.00
  WS02004412WS02004413 CONDUIT   1297.39     0  02:25      1.65    0.87    1.00
  WS02004413WS02003067 CONDUIT   1297.44     0  02:25      2.01    0.56    0.77
  WS02006109WS02006110 CONDUIT   1129.33     0  02:37      2.25    2.17    1.00
  WS02006110WS02006113 CONDUIT   1129.11     0  02:37      2.25    1.03    1.00
  WS02006111WS02006112 CONDUIT   1126.39     0  02:37      2.24    0.54    1.00
  WS02006112WS02006115 CONDUIT   1298.62     0  02:25      1.65    0.77    1.00
  WS02006113WS02006111 CONDUIT   1127.71     0  02:37      2.63    1.35    1.00
  WS02006115WS02006116 CONDUIT   1300.00     0  02:25      1.66    1.67    1.00
  WS02006116WS02004401 CONDUIT   1298.92     0  02:25      1.65    1.79    1.00
  WS02006228WS02006109 CONDUIT   1287.13     0  02:25      2.56    5.62    1.00
  WS02006229WS02006228 CONDUIT   1287.38     0  02:25      2.56    4.26    1.00
  WS02006230WS02006229 CONDUIT   1015.94     0  02:25      2.64   22.61    1.00
  WS02006231WS02006230 CONDUIT    564.07     0  04:20      1.53    8.56    1.00
  WS02006232WS02006231 CONDUIT    559.90     0  04:20      1.46    1.17    1.00
  WS02006234WS02006232 CONDUIT    558.72     0  04:20      1.45    1.13    1.00
  WS02006235WS02006234 CONDUIT    553.83     0  04:20      1.44    5.84    1.00
  WS02006238WS02006235 CONDUIT    426.93     0  03:42      1.45    0.95    1.00
  WS02006239WS02006238 CONDUIT    427.09     0  03:42      1.12    1.37    1.00
  WS02006240WS02006239 CONDUIT    426.82     0  03:42      1.26    1.34    1.00
  WS02006242WS02006240 CONDUIT    426.68     0  03:42      1.14    1.69    1.00
  WS02006243WS02006242 CONDUIT    426.87     0  03:42      1.34    0.91    1.00
  WS02006245WS02006243 CONDUIT    426.94     0  03:42      1.39    1.26    1.00
  WS02006247WS02006245 CONDUIT    426.84     0  03:42      1.37    3.38    1.00
  WS02006248WS02006247 CONDUIT    426.67     0  03:42      1.38    0.93    1.00
  WS02006249WS02006248 CONDUIT    426.11     0  03:42      1.38    2.33    1.00
  WS02006251WS02006249 CONDUIT   1348.24     0  02:25      3.50    3.89    1.00
  WS02006252WS02006251 CONDUIT    411.57     0  02:16     17.77    1.51    1.00
  WS02006253WS02006251 CONDUIT   1556.43     0  02:25      4.04    4.67    1.00
  WS02006256WS02006235 CONDUIT    288.93     0  00:00      4.23    3.06    1.00
  WS02006280WS02006229 CONDUIT   2304.05     0  02:25      4.18    0.49    1.00
  WS02006284WS02006280 CONDUIT   2303.50     0  02:25      2.96    0.96    1.00
  WS02006287WS02006284 CONDUIT   2303.15     0  02:25      2.93    1.07    1.00
  WSF200WS02003060     CONDUIT   1299.01     0  02:26      2.30    0.29    0.50
  YS02001580YS02001583 CONDUIT     83.19     0  02:16      0.60    0.32    1.00
  YS02001583YS02001586 CONDUIT    144.04     0  02:16      0.60    0.22    1.00
  YS02001586YS02001590 CONDUIT    323.20     0  02:37      1.25    0.57    1.00
  YS02001590YS02001593 CONDUIT    318.90     0  02:37      1.13    2.00    1.00
  YS02001593YS02001596 CONDUIT    318.21     0  02:31      1.74    0.50    1.00
  YS02001596YS02001600 CONDUIT    318.08     0  02:33      1.25    0.62    1.00
  YS02001600YS02001601 CONDUIT    317.93     0  02:33      1.12    0.55    1.00
  YS02001601YS02001602 CONDUIT    505.68     0  02:15      1.79    1.83    1.00
  YS02001602YS02001605 CONDUIT    505.76     0  02:15      1.79   10.70    1.00
  YS02001605YS02001607 CONDUIT    505.32     0  02:15      1.79    2.77    1.00
  YS02001607YS02001610 CONDUIT    503.46     0  02:15      0.64    0.48    1.00
  YS02001610YS02001613 CONDUIT    504.15     0  02:15      0.64    0.58    1.00
  YS02001613YS02001616 CONDUIT    504.51     0  02:15      0.64    0.43    1.00
  YS02001616YS02001619 CONDUIT    495.98     0  02:16      0.66    0.86    1.00
  YS02001619YS02001622 CONDUIT    920.03     0  02:19      1.17    1.36    1.00
  YS02001622YS02001625 CONDUIT    919.71     0  02:19      1.17    0.49    1.00
  YS02001625YS02001629 CONDUIT    919.36     0  02:19      1.17    0.44    1.00
  YS02001629YS02163301 CONDUIT    918.88     0  02:19      1.17    1.13    1.00
  YS02001633YS02163601 CONDUIT   1340.68     0  02:19      1.71    1.41    1.00
  YS02001641YS02001644 CONDUIT   1336.39     0  02:19      1.70    4.32    1.00
  YS02001644YS02001647 CONDUIT   1715.35     0  02:19      2.21    1.01    1.00
  YS02001647YS02001649 CONDUIT   1714.16     0  02:19      2.32    0.91    1.00
  YS02001649YS02001757 CONDUIT   1858.76     0  02:18      2.41    1.13    1.00
  YS02001652YS02001649 CONDUIT    758.24     0  02:25      0.97    0.38    1.00
  YS02001655YS02001652 CONDUIT    758.32     0  02:25      1.27    0.37    1.00
  YS02001658YS02001655 CONDUIT    756.99     0  02:25      1.87    0.32    1.00
  YS02001661YS02001658 CONDUIT    756.58     0  02:25      2.25    0.30    1.00
  YS02001664YS02001661 CONDUIT    870.65     0  02:24      2.20    0.27    0.73
  YS02001745YS02001748 CONDUIT    517.87     0  02:21      2.10    0.20    0.88
  YS02001748YS02001751 CONDUIT    476.07     0  02:25      1.64    0.24    1.00
  YS02001751YS02001754 CONDUIT    474.69     0  02:25      1.42    0.23    1.00
  YS02001754YS02001757 CONDUIT    474.56     0  02:25      0.60    0.19    1.00
  YS02001757CaochengTiaoxuchi CONDUIT   3136.85     0  02:23      3.99    1.36    1.00
  YS02001759YS02001757 CONDUIT   1272.90     0  02:24      1.62    0.90    1.00
  YS02001762YS02001759 CONDUIT    695.31     0  02:23      0.89    0.80    1.00
  YS02001765YS02001762 CONDUIT    694.49     0  02:23      0.88    0.65    1.00
  YS02001767YS02001765 CONDUIT    695.07     0  02:23      0.88    0.87    1.00
  YS02001770YS02001767 CONDUIT    694.07     0  02:23      0.88    2.75    1.00
  YS02001774YS02001770 CONDUIT    326.32     0  02:19      0.42    0.21    1.00
  YS02001779YS02001774 CONDUIT    330.01     0  02:19      0.43    0.17    1.00
  YS02001783YS02001784 CONDUIT   1162.09     0  02:24      2.31    1.60    1.00
  YS02001784YS02001785 CONDUIT   1162.93     0  02:24      2.31    2.71    1.00
  YS02001786YS02001788 CONDUIT   1162.98     0  02:24      2.48    2.24    0.89
  YS02001788YS02001790 CONDUIT   1168.99     0  02:25      2.71    0.86    0.84
  YS02001790YS02001791 CONDUIT   1294.70     0  02:24      3.44    1.41    0.70
  YS02001791YS02001793 CONDUIT   1247.52     0  02:22      6.78    0.54    0.44
  YS02001793JiankangQianchi CONDUIT   1241.14     0  02:27      2.49    0.10    0.65
  YS02001882YS02001884 CONDUIT     36.06     0  02:17      0.09    0.04    1.00
  YS02001884YS02001887 CONDUIT     67.69     0  02:17      0.09    0.09    1.00
  YS02001887YS02001890 CONDUIT    698.85     0  02:25      0.89    1.20    1.00
  YS02001890YS02001895 CONDUIT    516.89     0  02:27      0.66    0.24    1.00
  YS02001895YS02001898 CONDUIT    516.92     0  02:27      0.66    0.90    1.00
  YS02001898YS02001901 CONDUIT    516.84     0  02:27      0.66    0.33    1.00
  YS02001901YS02001904 CONDUIT    516.89     0  02:27      0.66    0.80    1.00
  YS02001904YS02001907 CONDUIT    516.76     0  02:27      0.66    0.18    1.00
  YS02001907YS02006553 CONDUIT    838.94     0  02:37      0.93    0.99    1.00
  YS02001910YS02001907 CONDUIT   1219.96     0  02:25      1.55    0.69    1.00
  YS02001915YS02001910 CONDUIT   1219.65     0  02:25      1.55    0.61    1.00
  YS02001918YS02001915 CONDUIT    451.14     0  02:21      0.57    0.25    1.00
  YS02001920YS02001918 CONDUIT    449.46     0  02:21      0.67    0.43    1.00
  YS02001923YS02001920 CONDUIT    445.38     0  02:21      0.68    0.20    1.00
  YS02001926YS02001923 CONDUIT    422.61     0  02:21      0.95    0.60    1.00
  YS02001929YS02001926 CONDUIT    418.02     0  02:21      1.11    0.20    1.00
  YS02006553YS02006556 CONDUIT    840.67     0  02:37      1.07    0.72    1.00
  YS02006556YS02006558 CONDUIT    843.86     0  02:37      1.07    0.67    1.00
  YS02006558YS02006561 CONDUIT   1162.27     0  02:23      4.11    2.57    1.00
  YS02006561YS02001783 CONDUIT   1161.66     0  02:24      2.31    0.60    1.00
  YS02163301YS02001633 CONDUIT    918.96     0  02:19      1.17    0.86    1.00
  YS02163601YS02164001 CONDUIT   1339.43     0  02:19      1.71    1.19    1.00
  YS02164001YS02001641 CONDUIT   1337.68     0  02:19      1.70    1.83    1.00
  YSB1154YSB6556       CONDUIT    372.73     0  02:25      0.97    0.67    1.00
  YSB1171HS02004479    CONDUIT    406.87     0  02:20      0.81    0.27    1.00
  YSB1174YSB1171       CONDUIT    327.47     0  02:25      0.85    0.50    1.00
  YSB6556YSB1171       CONDUIT    373.42     0  02:25      0.97    0.38    1.00
  CC-R1                PUMP       683.00     0  00:00              1.00
  CC-R2                PUMP       683.00     0  00:00              1.00
  CC-S1                PUMP       200.00     0  00:00              1.00
  CC-S2                PUMP       200.00     0  00:00              1.00
  JK-R1                PUMP      1000.00     0  00:00              1.00
  JK-R2                PUMP      1000.00     0  00:00              1.00
  JK-S                 PUMP       300.00     0  00:00              1.00
  XR-1                 PUMP        95.00     0  00:00              1.00
  XR-2                 PUMP        95.00     0  00:00              1.00
  XR-3                 PUMP        95.00     0  00:00              1.00
  XR-4                 PUMP        95.00     0  00:00              1.00
  
  
  ***************************
  Flow Classification Summary
  ***************************
  
  -------------------------------------------------------------------------------------
                      Adjusted    ---------- Fraction of Time in Flow Class ---------- 
                       /Actual         Up    Down  Sub   Sup   Up    Down  Norm  Inlet 
  Conduit               Length    Dry  Dry   Dry   Crit  Crit  Crit  Crit  Ltd   Ctrl  
  -------------------------------------------------------------------------------------
  1                       1.00   0.00  0.00  0.00  0.00  1.00  0.00  0.00  0.43  0.00
  HS02004478WS02006287    1.00   0.13  0.00  0.00  0.63  0.24  0.00  0.00  0.60  0.00
  HS02004479HS02004480    1.00   0.04  0.00  0.00  0.96  0.00  0.00  0.00  0.12  0.00
  HS02004480HS02004478    1.00   0.12  0.00  0.00  0.57  0.00  0.00  0.31  0.00  0.00
  HS02004770HS02004777    1.00   0.00  0.12  0.00  0.88  0.00  0.00  0.00  0.03  0.00
  HS02004777HS02004785    1.00   0.00  0.00  0.00  1.00  0.00  0.00  0.00  0.13  0.00
  HS02004785HS02004788    1.00   0.00  0.00  0.00  1.00  0.00  0.00  0.00  0.00  0.00
  HS02004788HS02004792    1.00   0.00  0.00  0.00  0.99  0.01  0.00  0.00  0.92  0.00
  HS02004792HS02004799    1.00   0.00  0.00  0.00  0.99  0.01  0.00  0.00  0.88  0.00
  HS02004799HS02004480    1.00   0.00  0.04  0.00  0.87  0.00  0.09  0.00  0.00  0.00
  HS02004802HS02004478    1.00   0.12  0.00  0.00  0.88  0.00  0.00  0.00  0.03  0.00
  HS02004807HS02004802    1.00   0.12  0.00  0.00  0.88  0.00  0.00  0.01  0.00  0.00
  HS02004817HS02004807    1.00   0.00  0.12  0.00  0.88  0.00  0.00  0.00  0.01  0.00
  HS02004817HS02004824    1.00   0.00  0.00  0.00  1.00  0.00  0.00  0.00  0.85  0.00
  HS02004824HS02004830    1.00   0.00  0.00  0.00  1.00  0.00  0.00  0.00  0.01  0.00
  HS02004830HS02004837    1.00   0.00  0.00  0.00  1.00  0.00  0.00  0.00  0.90  0.00
  HS02004837HS02004842    1.00   0.00  0.00  0.00  1.00  0.00  0.00  0.00  0.11  0.00
  HS02004842HS02004848    1.00   0.00  0.12  0.00  0.88  0.00  0.00  0.00  0.57  0.00
  HS02004848HS02004852    1.00   0.12  0.00  0.00  0.88  0.00  0.00  0.00  0.69  0.00
  HS02004852HS02004856    1.00   0.12  0.00  0.00  0.88  0.00  0.00  0.00  0.70  0.00
  HS02004856HS02004862    1.00   0.00  0.14  0.00  0.86  0.00  0.00  0.00  0.74  0.00
  HS02004862HS02004870    1.00   0.00  0.00  0.00  1.00  0.00  0.00  0.00  0.04  0.00
  HS02004870HS02004876    1.00   0.00  0.00  0.00  0.98  0.01  0.00  0.00  0.88  0.00
  HS02004876HS02004881    1.00   0.02  0.00  0.00  0.81  0.18  0.00  0.00  0.00  0.00
  HS02004881HS02006253    1.00   0.01  0.05  0.00  0.63  0.01  0.00  0.29  0.37  0.00
  HS02004901HS02004770    1.00   0.12  0.00  0.00  0.88  0.00  0.00  0.00  0.00  0.00
  WS02001211WS02001212    1.00   0.00  0.02  0.00  0.98  0.00  0.00  0.00  0.00  0.00
  WS02001212WS02001213    1.00   0.02  0.00  0.00  0.65  0.00  0.32  0.00  0.00  0.00
  WS02001213WS02003059    1.00   0.00  0.00  0.00  1.00  0.00  0.00  0.00  0.00  0.00
  WS02003059WS02003060    1.00   0.00  0.00  0.00  1.00  0.00  0.00  0.00  0.03  0.00
  WS02003060WS02003069    1.00   0.00  0.00  0.00  0.98  0.02  0.00  0.00  0.42  0.00
  WS02003066WSF200        1.00   0.08  0.00  0.00  0.00  0.92  0.00  0.00  0.66  0.00
  WS02003067WS02003066    1.00   0.06  0.01  0.00  0.93  0.00  0.00  0.00  0.00  0.00
  WS02003069WS02003072    1.00   0.00  0.00  0.00  1.00  0.00  0.00  0.00  0.47  0.00
  WS02003072WS02003073    1.00   0.00  0.00  0.00  0.00  0.00  0.00  1.00  0.00  0.00
  WS02004138WS02004139    1.00   0.00  0.01  0.00  0.98  0.01  0.00  0.01  0.98  0.00
  WS02004139WS02001211    1.00   0.00  0.00  0.00  1.00  0.00  0.00  0.00  0.00  0.00
  WS02004401WS02004402    1.00   0.02  0.00  0.00  0.98  0.00  0.00  0.00  0.00  0.00
  WS02004402WS02004403    1.00   0.02  0.00  0.00  0.98  0.00  0.00  0.00  0.00  0.00
  WS02004403WS02004404    1.00   0.00  0.02  0.00  0.98  0.00  0.00  0.00  0.00  0.00
  WS02004404WS02004405    1.00   0.00  0.00  0.00  1.00  0.00  0.00  0.00  0.01  0.00
  WS02004405WS02004406    1.00   0.00  0.00  0.00  1.00  0.00  0.00  0.00  0.00  0.00
  WS02004406WS02004407    1.00   0.00  0.04  0.00  0.96  0.00  0.00  0.00  0.00  0.00
  WS02004407WS02004409    1.00   0.04  0.00  0.00  0.94  0.02  0.00  0.00  0.85  0.00
  WS02004409WS02004410    1.00   0.04  0.00  0.00  0.96  0.00  0.00  0.00  0.00  0.00
  WS02004410WS02004411    1.00   0.04  0.00  0.00  0.96  0.00  0.00  0.00  0.00  0.00
  WS02004411WS02004412    1.00   0.04  0.00  0.00  0.95  0.00  0.00  0.00  0.00  0.00
  WS02004412WS02004413    1.00   0.05  0.00  0.00  0.95  0.00  0.00  0.00  0.00  0.00
  WS02004413WS02003067    1.00   0.05  0.01  0.00  0.00  0.00  0.94  0.00  0.00  0.00
  WS02006109WS02006110    1.00   0.00  0.01  0.00  0.99  0.00  0.01  0.00  0.00  0.00
  WS02006110WS02006113    1.00   0.01  0.01  0.00  0.99  0.00  0.00  0.00  0.00  0.00
  WS02006111WS02006112    1.00   0.02  0.00  0.00  0.98  0.00  0.00  0.00  0.79  0.00
  WS02006112WS02006115    1.00   0.02  0.00  0.00  0.98  0.00  0.00  0.00  0.00  0.00
  WS02006113WS02006111    1.00   0.01  0.00  0.00  0.18  0.81  0.00  0.00  0.13  0.00
  WS02006115WS02006116    1.00   0.02  0.00  0.00  0.97  0.00  0.00  0.01  0.00  0.00
  WS02006116WS02004401    1.00   0.02  0.00  0.00  0.98  0.00  0.00  0.00  0.00  0.00
  WS02006228WS02006109    1.00   0.00  0.00  0.00  1.00  0.00  0.00  0.00  0.00  0.00
  WS02006229WS02006228    1.00   0.00  0.00  0.00  0.99  0.00  0.00  0.00  0.00  0.00
  WS02006230WS02006229    1.00   0.00  0.00  0.00  0.99  0.00  0.00  0.01  0.03  0.00
  WS02006231WS02006230    1.00   0.00  0.00  0.00  0.66  0.00  0.34  0.00  0.00  0.00
  WS02006232WS02006231    1.00   0.00  0.00  0.00  1.00  0.00  0.00  0.00  0.00  0.00
  WS02006234WS02006232    1.00   0.00  0.00  0.00  1.00  0.00  0.00  0.00  0.03  0.00
  WS02006235WS02006234    1.00   0.00  0.00  0.00  0.92  0.00  0.08  0.00  0.00  0.00
  WS02006238WS02006235    1.00   0.00  0.00  0.00  1.00  0.00  0.00  0.00  0.00  0.00
  WS02006239WS02006238    1.00   0.00  0.00  0.00  1.00  0.00  0.00  0.00  0.09  0.00
  WS02006240WS02006239    1.00   0.00  0.00  0.00  0.85  0.00  0.00  0.15  0.02  0.00
  WS02006242WS02006240    1.00   0.00  0.00  0.00  0.99  0.00  0.01  0.00  0.00  0.00
  WS02006243WS02006242    1.00   0.00  0.00  0.00  1.00  0.00  0.00  0.00  0.44  0.00
  WS02006245WS02006243    1.00   0.00  0.00  0.00  0.92  0.00  0.00  0.08  0.00  0.00
  WS02006247WS02006245    1.00   0.00  0.00  0.00  0.99  0.00  0.00  0.01  0.00  0.00
  WS02006248WS02006247    1.00   0.00  0.00  0.00  1.00  0.00  0.00  0.00  0.41  0.00
  WS02006249WS02006248    1.00   0.00  0.00  0.00  0.78  0.00  0.22  0.00  0.00  0.00
  WS02006251WS02006249    1.00   0.00  0.00  0.00  1.00  0.00  0.00  0.00  0.41  0.00
  WS02006252WS02006251    1.00   0.01  0.21  0.00  0.27  0.00  0.51  0.00  0.00  0.00
  WS02006253WS02006251    1.00   0.00  0.00  0.00  1.00  0.00  0.00  0.00  0.01  0.00
  WS02006256WS02006235    1.00   0.00  0.00  0.00  0.99  0.01  0.00  0.00  0.00  0.00
  WS02006280WS02006229    1.00   0.12  0.00  0.00  0.14  0.03  0.00  0.70  0.01  0.00
  WS02006284WS02006280    1.00   0.12  0.00  0.00  0.10  0.01  0.00  0.77  0.00  0.00
  WS02006287WS02006284    1.00   0.11  0.02  0.00  0.49  0.38  0.00  0.00  0.65  0.00
  WSF200WS02003060        1.00   0.00  0.08  0.00  0.38  0.54  0.00  0.00  0.46  0.00
  YS02001580YS02001583    1.00   0.28  0.52  0.00  0.20  0.00  0.00  0.00  0.64  0.00
  YS02001583YS02001586    1.00   0.26  0.47  0.00  0.27  0.00  0.00  0.00  0.64  0.00
  YS02001586YS02001590    1.00   0.12  0.00  0.00  0.57  0.06  0.00  0.25  0.39  0.00
  YS02001590YS02001593    1.00   0.12  0.00  0.00  0.11  0.00  0.77  0.00  0.00  0.00
  YS02001593YS02001596    1.00   0.12  0.00  0.00  0.13  0.01  0.00  0.74  0.02  0.00
  YS02001596YS02001600    1.00   0.12  0.00  0.00  0.22  0.02  0.00  0.64  0.05  0.00
  YS02001600YS02001601    1.00   0.12  0.00  0.00  0.88  0.00  0.00  0.00  0.62  0.00
  YS02001601YS02001602    1.00   0.12  0.00  0.00  0.88  0.00  0.00  0.00  0.00  0.00
  YS02001602YS02001605    1.00   0.12  0.00  0.00  0.88  0.00  0.00  0.00  0.00  0.00
  YS02001605YS02001607    1.00   0.12  0.00  0.00  0.88  0.00  0.00  0.00  0.00  0.00
  YS02001607YS02001610    1.00   0.12  0.00  0.00  0.88  0.00  0.00  0.00  0.02  0.00
  YS02001610YS02001613    1.00   0.12  0.00  0.00  0.88  0.00  0.00  0.00  0.01  0.00
  YS02001613YS02001616    1.00   0.12  0.00  0.00  0.88  0.00  0.00  0.00  0.01  0.00
  YS02001616YS02001619    1.00   0.12  0.00  0.00  0.88  0.00  0.00  0.00  0.00  0.00
  YS02001619YS02001622    1.00   0.12  0.00  0.00  0.88  0.00  0.00  0.00  0.28  0.00
  YS02001622YS02001625    1.00   0.12  0.00  0.00  0.88  0.00  0.00  0.00  0.06  0.00
  YS02001625YS02001629    1.00   0.12  0.03  0.00  0.16  0.00  0.70  0.00  0.00  0.00
  YS02001629YS02163301    1.00   0.13  0.00  0.00  0.87  0.00  0.00  0.00  0.00  0.00
  YS02001633YS02163601    1.00   0.00  0.00  0.00  1.00  0.00  0.00  0.00  0.15  0.00
  YS02001641YS02001644    1.00   0.00  0.00  0.00  1.00  0.00  0.00  0.00  0.00  0.00
  YS02001644YS02001647    1.00   0.00  0.14  0.00  0.86  0.00  0.00  0.00  0.00  0.00
  YS02001647YS02001649    1.00   0.00  0.14  0.00  0.39  0.46  0.00  0.00  0.56  0.00
  YS02001649YS02001757    1.00   0.00  0.00  0.00  0.67  0.32  0.00  0.00  0.42  0.00
  YS02001652YS02001649    1.00   0.00  0.00  0.00  0.97  0.03  0.00  0.00  0.77  0.00
  YS02001655YS02001652    1.00   0.00  0.00  0.00  0.19  0.02  0.00  0.80  0.05  0.00
  YS02001658YS02001655    1.00   0.00  0.12  0.00  0.62  0.26  0.00  0.00  0.71  0.00
  YS02001661YS02001658    1.00   0.12  0.00  0.00  0.38  0.50  0.00  0.00  0.71  0.00
  YS02001664YS02001661    1.00   0.12  0.00  0.00  0.75  0.13  0.00  0.00  0.86  0.00
  YS02001745YS02001748    1.00   0.00  0.00  0.00  0.08  0.01  0.00  0.91  0.04  0.00
  YS02001748YS02001751    1.00   0.00  0.00  0.00  0.77  0.23  0.00  0.00  0.75  0.00
  YS02001751YS02001754    1.00   0.00  0.00  0.00  0.16  0.01  0.00  0.83  0.04  0.00
  YS02001754YS02001757    1.00   0.00  0.00  0.00  1.00  0.00  0.00  0.00  0.84  0.00
  YS02001757CaochengTiaoxuchi    1.00   0.00  0.00  0.00  1.00  0.00  0.00  0.00  0.72  0.00
  YS02001759YS02001757    1.00   0.00  0.00  0.00  1.00  0.00  0.00  0.00  0.55  0.00
  YS02001762YS02001759    1.00   0.00  0.00  0.00  1.00  0.00  0.00  0.00  0.06  0.00
  YS02001765YS02001762    1.00   0.00  0.00  0.00  1.00  0.00  0.00  0.00  0.68  0.00
  YS02001767YS02001765    1.00   0.00  0.00  0.00  1.00  0.00  0.00  0.00  0.01  0.00
  YS02001770YS02001767    1.00   0.00  0.00  0.00  1.00  0.00  0.00  0.00  0.00  0.00
  YS02001774YS02001770    1.00   0.00  0.12  0.00  0.80  0.00  0.08  0.00  0.04  0.00
  YS02001779YS02001774    1.00   0.00  0.00  0.00  1.00  0.00  0.00  0.00  0.78  0.00
  YS02001783YS02001784    1.00   0.00  0.15  0.00  0.85  0.00  0.00  0.00  0.55  0.00
  YS02001784YS02001785    1.00   0.00  0.00  0.00  1.00  0.00  0.00  0.00  0.18  0.00
  YS02001786YS02001788    1.00   0.00  0.00  0.00  0.73  0.27  0.00  0.00  0.00  0.00
  YS02001788YS02001790    1.00   0.00  0.00  0.00  0.18  0.82  0.00  0.00  0.82  0.00
  YS02001790YS02001791    1.00   0.00  0.00  0.00  0.01  0.99  0.00  0.00  0.16  0.00
  YS02001791YS02001793    1.00   0.00  0.00  0.00  0.00  1.00  0.00  0.00  0.01  0.00
  YS02001793JiankangQianchi    1.00   0.00  0.00  0.00  0.99  0.01  0.00  0.00  0.97  0.00
  YS02001882YS02001884    1.00   0.13  0.00  0.00  0.87  0.00  0.00  0.00  0.00  0.00
  YS02001884YS02001887    1.00   0.08  0.03  0.00  0.89  0.00  0.00  0.00  0.00  0.00
  YS02001887YS02001890    1.00   0.00  0.00  0.00  0.97  0.00  0.03  0.00  0.00  0.00
  YS02001890YS02001895    1.00   0.00  0.13  0.00  0.87  0.00  0.00  0.00  0.00  0.00
  YS02001895YS02001898    1.00   0.13  0.00  0.00  0.85  0.00  0.02  0.00  0.00  0.00
  YS02001898YS02001901    1.00   0.13  0.00  0.00  0.86  0.00  0.00  0.00  0.02  0.00
  YS02001901YS02001904    1.00   0.13  0.00  0.00  0.87  0.00  0.00  0.00  0.00  0.00
  YS02001904YS02001907    1.00   0.00  0.13  0.00  0.87  0.00  0.00  0.00  0.00  0.00
  YS02001907YS02006553    1.00   0.00  0.02  0.00  0.98  0.00  0.00  0.00  0.00  0.00
  YS02001910YS02001907    1.00   0.00  0.00  0.00  0.97  0.00  0.00  0.02  0.12  0.00
  YS02001915YS02001910    1.00   0.00  0.00  0.00  0.98  0.02  0.00  0.00  0.17  0.00
  YS02001918YS02001915    1.00   0.00  0.00  0.00  0.98  0.02  0.00  0.00  0.77  0.00
  YS02001920YS02001918    1.00   0.00  0.00  0.00  1.00  0.00  0.00  0.00  0.00  0.00
  YS02001923YS02001920    1.00   0.00  0.00  0.00  1.00  0.00  0.00  0.00  0.94  0.00
  YS02001926YS02001923    1.00   0.00  0.09  0.00  0.05  0.00  0.86  0.00  0.00  0.00
  YS02001929YS02001926    1.00   0.00  0.12  0.00  0.88  0.00  0.00  0.00  0.83  0.00
  YS02006553YS02006556    1.00   0.01  0.00  0.00  0.99  0.00  0.00  0.00  0.03  0.00
  YS02006556YS02006558    1.00   0.00  0.00  0.00  1.00  0.00  0.00  0.00  0.00  0.00
  YS02006558YS02006561    1.00   0.15  0.00  0.00  0.04  0.81  0.00  0.00  0.19  0.00
  YS02006561YS02001783    1.00   0.15  0.00  0.00  0.08  0.77  0.00  0.00  0.69  0.00
  YS02163301YS02001633    1.00   0.00  0.13  0.00  0.87  0.00  0.00  0.00  0.00  0.00
  YS02163601YS02164001    1.00   0.00  0.10  0.00  0.90  0.00  0.00  0.00  0.00  0.00
  YS02164001YS02001641    1.00   0.00  0.09  0.00  0.90  0.00  0.00  0.00  0.06  0.00
  YSB1154YSB6556          1.00   0.12  0.00  0.00  0.88  0.00  0.00  0.00  0.02  0.00
  YSB1171HS02004479       1.00   0.05  0.00  0.00  0.93  0.01  0.00  0.02  0.10  0.00
  YSB1174YSB1171          1.00   0.06  0.04  0.00  0.90  0.00  0.00  0.00  0.00  0.00
  YSB6556YSB1171          1.00   0.05  0.06  0.00  0.88  0.00  0.00  0.00  0.00  0.00
  
  
  *************************
  Conduit Surcharge Summary
  *************************
  
  ----------------------------------------------------------------------------
                                                           Hours        Hours 
                         --------- Hours Full --------   Above Full   Capacity
  Conduit                Both Ends  Upstream  Dnstream   Normal Flow   Limited
  ----------------------------------------------------------------------------
  HS02004478WS02006287        0.36      0.36      0.52      0.01         0.01
  HS02004479HS02004480        0.52      0.52      0.54      0.01         0.01
  HS02004480HS02004478        0.46      0.51      0.46      1.48         0.46
  HS02004770HS02004777        0.43      0.43      0.43      0.09         0.05
  HS02004777HS02004785        0.39      0.39      0.43      0.01         0.01
  HS02004785HS02004788        0.38      0.39      0.38      1.18         0.35
  HS02004788HS02004792        0.38      0.38      0.48      0.01         0.01
  HS02004792HS02004799        0.48      0.48      0.60      0.01         0.01
  HS02004799HS02004480        0.51      0.51      0.60      0.67         0.01
  HS02004802HS02004478        0.47      0.47      0.53      0.04         0.01
  HS02004807HS02004802        0.51      0.51      0.53      0.18         0.19
  HS02004817HS02004807        0.51      0.51      1.01      0.01         0.01
  HS02004817HS02004824        0.39      0.39      1.01      0.01         0.01
  HS02004824HS02004830        0.36      0.36      0.39      0.01         0.01
  HS02004830HS02004837        0.32      0.32      0.36      0.01         0.01
  HS02004837HS02004842        0.32      0.32      0.45      0.01         0.01
  HS02004842HS02004848        0.29      0.29      0.45      0.01         0.01
  HS02004848HS02004852        0.29      0.29      0.31      0.02         0.01
  HS02004852HS02004856        0.31      0.31      0.33      0.01         0.01
  HS02004856HS02004862        0.31      0.31      0.34      0.01         0.01
  HS02004862HS02004870        0.34      0.34      0.35      0.09         0.09
  HS02004870HS02004876        0.35      0.35      0.42      0.01         0.01
  HS02004876HS02004881        0.40      0.42      0.40      1.22         0.40
  HS02004881HS02006253        0.40      0.40      1.90      0.01         0.01
  HS02004901HS02004770        0.43      0.43      0.43      0.01         0.01
  WS02003072WS02003073        0.01      0.01      0.01      3.75         0.01
  WS02004401WS02004402        1.36      1.36      1.37      1.11         1.09
  WS02004402WS02004403        1.37      1.37      1.37      1.36         1.35
  WS02004403WS02004404        1.37      1.37      1.52      0.01         0.01
  WS02004404WS02004405        1.47      1.52      1.47      4.51         1.47
  WS02004405WS02004406        1.44      1.47      1.44      1.97         1.44
  WS02004406WS02004407        0.01      0.01      1.44      0.01         0.01
  WS02004407WS02004409        0.01      0.01      0.86      0.01         0.01
  WS02004409WS02004410        0.80      0.86      0.80      1.18         0.80
  WS02004410WS02004411        0.72      0.80      0.72      1.29         0.72
  WS02004411WS02004412        0.63      0.72      0.63      1.36         0.63
  WS02004412WS02004413        0.63      0.63      1.08      0.01         0.01
  WS02004413WS02003067        0.01      0.01      1.08      0.01         0.01
  WS02006109WS02006110        1.82      1.82      3.06      1.85         0.01
  WS02006110WS02006113        1.07      1.07      2.90      0.24         0.01
  WS02006111WS02006112        1.03      1.03      3.70      0.01         0.01
  WS02006112WS02006115        1.19      1.19      2.07      0.01         0.01
  WS02006113WS02006111        1.05      1.07      1.05      1.09         1.04
  WS02006115WS02006116        1.20      1.20      1.21      1.17         1.16
  WS02006116WS02004401        1.36      1.36      1.36      1.31         1.29
  WS02006228WS02006109        2.73      3.06      2.73      4.01         2.73
  WS02006229WS02006228        2.68      2.78      2.68      3.77         2.68
  WS02006230WS02006229        3.35      3.65      3.35      4.37         2.31
  WS02006231WS02006230        1.58      1.58      1.81      4.10         0.85
  WS02006232WS02006231        1.79      1.79      2.60      0.04         0.12
  WS02006234WS02006232        2.19      2.19      2.60      0.03         0.05
  WS02006235WS02006234        2.13      2.13      2.25      3.94         0.81
  WS02006238WS02006235        2.30      2.30      2.54      0.01         0.28
  WS02006239WS02006238        2.38      2.45      2.39      2.53         1.10
  WS02006240WS02006239        2.25      2.31      2.26      2.45         0.97
  WS02006242WS02006240        2.27      2.27      2.77      3.08         0.74
  WS02006243WS02006242        2.32      2.32      2.54      0.01         0.02
  WS02006245WS02006243        2.29      2.31      2.29      1.59         0.97
  WS02006247WS02006245        2.28      2.38      2.28      3.59         1.30
  WS02006248WS02006247        2.28      2.28      2.34      0.01         0.03
  WS02006249WS02006248        2.24      2.25      2.31      2.63         0.01
  WS02006251WS02006249        2.29      2.31      2.31      2.89         2.23
  WS02006252WS02006251        3.03      3.03      3.06      2.54         0.01
  WS02006253WS02006251        2.29      2.30      2.36      0.64         0.02
  WS02006256WS02006235        4.29      4.34      7.42      0.64         0.01
  WS02006280WS02006229        0.64      0.64      0.76      0.01         0.01
  WS02006284WS02006280        0.54      0.54      0.62      0.01         0.01
  WS02006287WS02006284        0.46      0.46      0.55      0.21         0.22
  YS02001580YS02001583        0.45      0.45      0.50      0.01         0.01
  YS02001583YS02001586        0.46      0.46      0.57      0.01         0.01
  YS02001586YS02001590        0.57      0.57      0.64      0.01         0.01
  YS02001590YS02001593        0.64      0.64      0.65      0.66         0.01
  YS02001593YS02001596        0.65      0.65      0.74      0.01         0.01
  YS02001596YS02001600        0.79      0.79      0.88      0.01         0.01
  YS02001600YS02001601        0.94      0.94      1.19      0.01         0.01
  YS02001601YS02001602        1.09      1.09      1.23      0.88         0.01
  YS02001602YS02001605        1.04      1.04      1.09      2.14         0.01
  YS02001605YS02001607        1.00      1.04      1.00      1.15         1.00
  YS02001607YS02001610        0.61      0.61      0.64      0.01         0.01
  YS02001610YS02001613        0.61      0.61      0.64      0.01         0.01
  YS02001613YS02001616        0.57      0.57      0.61      0.01         0.01
  YS02001616YS02001619        0.56      0.56      0.57      0.01         0.01
  YS02001619YS02001622        0.56      0.56      0.56      0.65         0.53
  YS02001622YS02001625        0.56      0.56      0.72      0.01         0.01
  YS02001625YS02001629        0.52      0.52      0.72      0.01         0.01
  YS02001629YS02163301        0.72      0.72      0.72      0.13         0.15
  YS02001633YS02163601        0.74      0.74      0.77      0.28         0.28
  YS02001641YS02001644        0.65      0.68      0.65      1.28         0.63
  YS02001644YS02001647        0.47      0.47      0.65      0.01         0.01
  YS02001647YS02001649        0.47      0.47      0.56      0.01         0.01
  YS02001649YS02001757        0.56      0.56      0.62      0.07         0.04
  YS02001652YS02001649        0.42      0.42      0.56      0.01         0.01
  YS02001655YS02001652        0.28      0.28      0.41      0.01         0.01
  YS02001658YS02001655        0.16      0.16      0.29      0.01         0.01
  YS02001661YS02001658        0.01      0.01      0.16      0.01         0.01
  YS02001664YS02001661        0.01      0.01      0.03      0.01         0.01
  YS02001745YS02001748        0.01      0.01      0.11      0.01         0.01
  YS02001748YS02001751        0.14      0.14      0.22      0.01         0.01
  YS02001751YS02001754        0.22      0.22      0.34      0.01         0.01
  YS02001754YS02001757        0.37      0.37      0.62      0.01         0.01
  YS02001757CaochengTiaoxuchi        0.62      0.62      1.63      0.26         0.26
  YS02001759YS02001757        0.54      0.54      0.62      0.01         0.01
  YS02001762YS02001759        0.51      0.51      0.54      0.01         0.02
  YS02001765YS02001762        0.47      0.47      0.51      0.01         0.01
  YS02001767YS02001765        0.45      0.45      0.47      0.01         0.02
  YS02001770YS02001767        0.44      0.44      0.45      0.41         0.30
  YS02001774YS02001770        0.42      0.42      0.49      0.01         0.01
  YS02001779YS02001774        0.33      0.33      0.49      0.01         0.01
  YS02001783YS02001784        0.40      0.42      0.40      0.56         0.40
  YS02001784YS02001785        0.30      0.40      0.30      0.77         0.30
  YS02001786YS02001788        0.01      0.30      0.01      0.67         0.01
  YS02001790YS02001791        0.01      0.01      0.01      0.39         0.01
  YS02001793JiankangQianchi        0.01      0.01      6.46      0.01         0.01
  YS02001882YS02001884        0.37      0.37      0.38      0.01         0.01
  YS02001884YS02001887        0.40      0.40      0.42      0.01         0.01
  YS02001887YS02001890        0.43      0.43      0.44      0.06         0.01
  YS02001890YS02001895        0.37      0.37      0.45      0.01         0.01
  YS02001895YS02001898        0.36      0.36      0.37      0.01         0.01
  YS02001898YS02001901        0.37      0.37      0.40      0.01         0.01
  YS02001901YS02001904        0.39      0.39      0.40      0.01         0.01
  YS02001904YS02001907        0.39      0.39      0.65      0.01         0.01
  YS02001907YS02006553        0.77      0.77      0.84      0.01         0.01
  YS02001910YS02001907        0.45      0.45      0.63      0.01         0.01
  YS02001915YS02001910        0.37      0.37      0.45      0.01         0.01
  YS02001918YS02001915        0.29      0.29      0.37      0.01         0.01
  YS02001920YS02001918        0.30      0.30      0.31      0.01         0.01
  YS02001923YS02001920        0.25      0.25      0.31      0.01         0.01
  YS02001926YS02001923        0.03      0.03      0.04      0.01         0.01
  YS02001929YS02001926        0.01      0.01      0.04      0.01         0.01
  YS02006553YS02006556        0.54      0.54      0.65      0.01         0.01
  YS02006556YS02006558        0.59      0.59      0.66      0.01         0.01
  YS02006558YS02006561        0.32      0.53      0.32      0.73         0.32
  YS02006561YS02001783        0.26      0.26      0.42      0.01         0.01
  YS02163301YS02001633        0.72      0.72      0.76      0.01         0.01
  YS02163601YS02164001        0.69      0.69      0.77      0.08         0.01
  YS02164001YS02001641        0.68      0.69      0.68      0.59         0.51
  YSB1154YSB6556              0.58      0.58      0.70      0.01         0.01
  YSB1171HS02004479           0.48      0.48      0.70      0.01         0.01
  YSB1174YSB1171              0.64      0.64      0.91      0.01         0.01
  YSB6556YSB1171              0.58      0.58      1.06      0.01         0.01
  
  
  ***************
  Pumping Summary
  ***************
  
  ---------------------------------------------------------------------------------------------------------
                                                  Min       Avg       Max     Total     Power    % Time Off
                        Percent   Number of      Flow      Flow      Flow    Volume     Usage    Pump Curve
  Pump                 Utilized   Start-Ups       LPS       LPS       LPS  10^6 ltr     Kw-hr    Low   High
  ---------------------------------------------------------------------------------------------------------
  CC-R1                   14.45           9      0.00    683.00    683.00     2.843     53.37    0.0    8.0
  CC-R2                   10.32           7      0.00    683.00    683.00     2.030     38.43    0.0   11.0
  CC-S1                   42.12          25      0.00    200.00    200.00     2.426     16.20    0.0    0.0
  CC-S2                   41.17          19      0.00    200.00    200.00     2.371     15.93    0.0    0.0
  JK-R1                    4.62          26      0.00   1000.00   1000.00     1.330     12.00    0.0    0.0
  JK-R2                    3.90          14      0.00   1000.00   1000.00     1.123     11.72    0.0    0.0
  JK-S                    12.85          32      0.00    300.00    300.00     1.110     19.49    0.0    0.0
  XR-1                    97.91           2      0.00     95.00     95.00     2.679      9.64    0.0    0.0
  XR-2                    93.95           2      0.00     95.00     95.00     2.570      8.80    0.0    0.0
  XR-3                     0.00           1      0.00     95.00     95.00     0.000      0.00    0.0    0.0
  XR-4                     0.00           1      0.00     95.00     95.00     0.000      0.00    0.0    0.0
  

  Analysis begun on:  Mon Feb 27 13:40:22 2023
  Analysis ended on:  Mon Feb 27 13:40:26 2023
  Total elapsed time: 00:00:04