
  OWA STORM WATER MANAGEMENT MODEL - VERSION v5.1.14 (OWA 2023-01-25)
  --------------------------------------------------------------

  WARNING 04: minimum elevation drop used for Conduit WS02004404WS02004405
  WARNING 03: negative offset ignored for Link YS02001904YS02001907
  
  *********************************************************
  NOTE: The summary statistics displayed in this report are
  based on results found at every computational time step,  
  not just on results from each reporting time step.
  *********************************************************
  
  ****************
  Analysis Options
  ****************
  Flow Units ............... LPS
  Process Models:
    Rainfall/Runoff ........ YES
    RDII ................... NO
    Snowmelt ............... NO
    Groundwater ............ NO
    Flow Routing ........... YES
    Ponding Allowed ........ NO
    Water Quality .......... NO
  Infiltration Method ...... HORTON
  Flow Routing Method ...... DYNWAVE
  Surcharge Method ......... EXTRAN
  Starting Date ............ 08/28/2015 08:00:00
  Ending Date .............. 08/28/2015 16:00:00
  Antecedent Dry Days ...... 8.0
  Report Time Step ......... 00:01:00
  Wet Time Step ............ 00:01:00
  Dry Time Step ............ 00:01:00
  Routing Time Step ........ 30.00 sec
  Variable Time Step ....... YES
  Maximum Trials ........... 8
  Number of Threads ........ 1
  Head Tolerance ........... 0.001500 m
  
  
  **************************        Volume         Depth
  Runoff Quantity Continuity     hectare-m            mm
  **************************     ---------       -------
  Total Precipitation ......         3.148        51.961
  Evaporation Loss .........         0.000         0.000
  Infiltration Loss ........         0.234         3.859
  Surface Runoff ...........         2.854        47.107
  Final Storage ............         0.061         1.006
  Continuity Error (%) .....        -0.021
  
  
  **************************        Volume        Volume
  Flow Routing Continuity        hectare-m      10^6 ltr
  **************************     ---------     ---------
  Dry Weather Inflow .......         0.630         6.296
  Wet Weather Inflow .......         2.854        28.536
  Groundwater Inflow .......         0.000         0.000
  RDII Inflow ..............         0.000         0.000
  External Inflow ..........         0.105         1.045
  External Outflow .........         2.392        23.916
  Flooding Loss ............         1.190        11.899
  Evaporation Loss .........         0.000         0.000
  Exfiltration Loss ........         0.000         0.000
  Initial Stored Volume ....         0.303         3.031
  Final Stored Volume ......         0.321         3.215
  Continuity Error (%) .....        -0.314
  
  
  *************************
  Highest Continuity Errors
  *************************
  Node YS02001583 (-6.03%)
  Node YS02001884 (5.17%)
  Node WS02006256 (-3.68%)
  Node HS02004842 (1.82%)
  Node YS02001774 (1.42%)
  
  
  ***************************
  Time-Step Critical Elements
  ***************************
  Link WS02006280WS02006229 (46.39%)
  Link WS02006252WS02006251 (17.17%)
  Link WS02006238WS02006235 (12.87%)
  Link YS02001791YS02001793 (6.60%)
  Link WS02003066WSF200 (2.51%)
  
  
  ********************************
  Highest Flow Instability Indexes
  ********************************
  Link WS02006113WS02006111 (28)
  Link WS02006256WS02006235 (23)
  Link WS02004404WS02004405 (22)
  Link WS02006229WS02006228 (21)
  Link WS02006238WS02006235 (20)
  
  
  *************************
  Routing Time Step Summary
  *************************
  Minimum Time Step           :     0.01 sec
  Average Time Step           :     2.43 sec
  Maximum Time Step           :     6.46 sec
  Percent in Steady State     :    -0.00
  Average Iterations per Step :     3.49
  Percent Not Converging      :    14.83
  
  
  ***************************
  Subcatchment Runoff Summary
  ***************************
  
  ------------------------------------------------------------------------------------------------------------------------------
                            Total      Total      Total      Total     Imperv       Perv      Total       Total     Peak  Runoff
                           Precip      Runon       Evap      Infil     Runoff     Runoff     Runoff      Runoff   Runoff   Coeff
  Subcatchment                 mm         mm         mm         mm         mm         mm         mm    10^6 ltr      LPS
  ------------------------------------------------------------------------------------------------------------------------------
  sub0                      51.96       0.00       0.00       0.98      47.07       2.66      49.73        0.04    30.01   0.957
  sub1                      51.96       0.00       0.00       1.67      45.00       4.05      49.05        0.33   198.25   0.944
  sub10                     51.96       0.00       0.00       1.18      46.52       2.98      49.50        0.55   340.06   0.953
  sub11                     51.96       0.00       0.00       1.16      46.54       3.00      49.54        0.58   379.44   0.953
  sub12                     51.96       0.00       0.00       1.89      44.03       4.87      48.90        0.43   304.43   0.941
  sub14                     51.96       0.00       0.00       1.32      46.03       3.36      49.38        0.47   301.93   0.950
  sub15                     51.96       0.00       0.00       5.15      35.40      10.45      45.85        0.79   453.61   0.882
  sub16                     51.96       0.00       0.00       5.33      33.90      11.82      45.73        0.48   308.11   0.880
  sub17                     51.96       0.00       0.00       5.19      34.41      11.44      45.84        0.39   250.25   0.882
  sub2                      51.96       0.00       0.00       7.31      31.83      11.92      43.75        0.41   197.67   0.842
  sub22                     51.96       0.00       0.00       7.79      28.84      14.56      43.40        2.74  1498.97   0.835
  sub23                     51.96       0.00       0.00       6.36      31.87      12.87      44.74        2.13  1253.32   0.861
  sub3                      51.96       0.00       0.00       7.91      31.79      11.31      43.11        0.97   424.39   0.830
  sub4                      51.96       0.00       0.00       1.85      44.83       3.87      48.70        1.02   473.10   0.937
  sub5                      51.96       0.00       0.00       1.03      47.02       2.61      49.63        0.56   343.06   0.955
  sub60                     51.96       0.00       0.00       1.77      44.52       4.46      48.98        0.64   429.68   0.943
  sub61                     51.96       0.00       0.00       2.57      41.99       6.27      48.26        0.89   594.45   0.929
  sub62                     51.96       0.00       0.00       1.18      46.52       2.98      49.49        1.36   831.63   0.953
  sub63                     51.96       0.00       0.00       4.73      35.92      10.35      46.27        1.05   656.67   0.890
  sub64                     51.96       0.00       0.00       2.39      42.96       5.41      48.36        1.16   670.10   0.931
  sub65                     51.96       0.00       0.00       2.07      43.95       4.69      48.64        1.34   748.27   0.936
  sub66                     51.96       0.00       0.00       5.81      35.82       9.26      45.07        2.10   956.44   0.867
  sub67                     51.96       0.00       0.00       1.14      46.56       3.02      49.58        0.92   646.97   0.954
  sub68                     51.96       0.00       0.00       2.13      43.50       5.15      48.65        1.34   854.28   0.936
  sub69                     51.96       0.00       0.00       1.88      44.05       5.92      49.97        1.85   998.41   0.962
  sub7                      51.96       0.00       0.00       1.30      46.04       3.37      49.41        0.17   112.36   0.951
  sub70                     51.96       0.00       0.00       6.21      34.13      11.46      45.59        1.32   537.66   0.877
  sub71                     51.96       0.00       0.00       1.21      46.48       2.95      49.42        1.29   727.59   0.951
  sub72                     51.96       0.00       0.00       1.08      46.92       2.56      49.48        0.68   348.36   0.952
  sub8                      51.96       0.00       0.00       1.32      46.03       3.36      49.39        0.32   205.68   0.951
  sub9                      51.96       0.00       0.00       1.32      46.03       3.36      49.39        0.24   153.58   0.950
  
  
  ******************
  Node Depth Summary
  ******************
  
  ---------------------------------------------------------------------------------
                                 Average  Maximum  Maximum  Time of Max    Reported
                                   Depth    Depth      HGL   Occurrence   Max Depth
  Node                 Type       Meters   Meters   Meters  days hr:min      Meters
  ---------------------------------------------------------------------------------
  HS02004478           JUNCTION     0.22     1.59    10.82     0  02:00        1.59
  HS02004479           JUNCTION     0.29     1.70    10.90     0  01:59        1.70
  HS02004480           JUNCTION     0.26     1.68    10.92     0  01:59        1.68
  HS02004770           JUNCTION     0.26     1.42    11.25     0  01:57        1.42
  HS02004777           JUNCTION     0.29     1.48    11.28     0  01:57        1.47
  HS02004785           JUNCTION     0.18     1.49    11.39     0  01:57        1.37
  HS02004788           JUNCTION     0.15     1.42    11.32     0  01:57        1.36
  HS02004792           JUNCTION     0.20     1.60    11.12     0  01:57        1.60
  HS02004799           JUNCTION     0.32     1.76    10.97     0  01:59        1.76
  HS02004802           JUNCTION     0.31     1.81    10.93     0  01:59        1.78
  HS02004807           JUNCTION     0.28     1.92    11.09     0  01:59        1.88
  HS02004817           JUNCTION     0.58     2.44    11.29     0  01:59        2.30
  HS02004824           JUNCTION     0.15     2.01    11.41     0  01:59        1.83
  HS02004830           JUNCTION     0.15     2.03    11.50     0  01:59        1.75
  HS02004837           JUNCTION     0.13     1.96    11.54     0  01:59        1.61
  HS02004842           JUNCTION     0.42     2.22    11.49     0  01:59        1.92
  HS02004848           JUNCTION     0.11     2.03    11.63     0  01:59        1.57
  HS02004852           JUNCTION     0.11     2.06    11.58     0  01:59        1.64
  HS02004856           JUNCTION     0.17     2.07    11.50     0  01:59        1.69
  HS02004862           JUNCTION     0.13     2.00    11.38     0  01:59        1.64
  HS02004870           JUNCTION     0.12     2.10    11.39     0  01:59        1.64
  HS02004876           JUNCTION     0.17     2.14    11.17     0  01:59        1.74
  HS02004881           JUNCTION     0.11     1.88    10.91     0  01:59        1.53
  HS02004901           JUNCTION     0.27     1.42    11.24     0  01:57        1.42
  WS02001211           JUNCTION     0.63     0.81     5.65     0  02:06        0.81
  WS02001212           JUNCTION     0.37     0.57     5.63     0  02:06        0.57
  WS02001213           JUNCTION     0.58     0.86     5.63     0  02:06        0.86
  WS02003059           JUNCTION     0.65     0.93     5.62     0  02:05        0.93
  WS02003060           JUNCTION     0.38     0.68     5.61     0  02:05        0.68
  WS02003066           JUNCTION     0.23     0.45     6.01     0  02:02        0.45
  WS02003067           JUNCTION     0.54     0.89     6.21     0  02:01        0.88
  WS02003069           JUNCTION     0.42     0.77     5.36     0  02:06        0.77
  WS02003072           JUNCTION     0.48     0.81     5.18     0  02:06        0.81
  WS02003073           JUNCTION     0.29     0.51     4.58     0  02:06        0.51
  WS02004138           JUNCTION     0.13     0.14     7.39     0  00:29        0.14
  WS02004139           JUNCTION     0.57     0.74     5.65     0  02:05        0.74
  WS02004401           JUNCTION     0.75     1.84     7.84     0  02:02        1.83
  WS02004402           JUNCTION     0.77     1.78     7.74     0  02:02        1.77
  WS02004403           JUNCTION     0.77     1.70     7.63     0  02:02        1.70
  WS02004404           JUNCTION     0.83     1.71     7.56     0  02:02        1.71
  WS02004405           JUNCTION     0.82     1.66     7.51     0  02:02        1.65
  WS02004406           JUNCTION     0.81     1.55     7.38     0  02:02        1.55
  WS02004407           JUNCTION     0.26     0.90     7.22     0  02:02        0.90
  WS02004409           JUNCTION     0.52     1.39     7.16     0  02:02        1.39
  WS02004410           JUNCTION     0.53     1.28     7.00     0  02:01        1.28
  WS02004411           JUNCTION     0.53     1.19     6.87     0  02:01        1.19
  WS02004412           JUNCTION     0.54     1.10     6.74     0  02:02        1.10
  WS02004413           JUNCTION     0.67     1.14     6.61     0  02:01        1.14
  WS02006109           JUNCTION     0.97     2.64     9.26     0  01:57        2.64
  WS02006110           JUNCTION     0.90     2.38     8.97     0  02:02        2.38
  WS02006111           JUNCTION     0.41     1.72     8.43     0  02:02        1.72
  WS02006112           JUNCTION     0.97     2.36     8.24     0  02:02        2.36
  WS02006113           JUNCTION     0.49     1.82     8.71     0  02:02        1.82
  WS02006115           JUNCTION     0.68     1.94     8.08     0  02:02        1.94
  WS02006116           JUNCTION     0.74     1.94     7.98     0  02:02        1.94
  WS02006228           JUNCTION     1.02     3.03     9.68     0  02:00        3.03
  WS02006229           JUNCTION     1.02     3.25     9.94     0  02:00        3.25
  WS02006230           JUNCTION     0.96     2.65     9.39     0  01:53        2.65
  WS02006231           JUNCTION     0.69     2.19     9.31     0  02:28        2.19
  WS02006232           JUNCTION     0.78     2.18     9.22     0  01:53        2.18
  WS02006234           JUNCTION     0.66     1.96     9.12     0  01:53        1.96
  WS02006235           JUNCTION     0.68     1.96     9.12     0  02:25        1.95
  WS02006238           JUNCTION     0.70     1.97     9.11     0  02:25        1.94
  WS02006239           JUNCTION     0.64     1.83     9.03     0  02:25        1.80
  WS02006240           JUNCTION     0.58     1.65     8.95     0  02:25        1.63
  WS02006242           JUNCTION     0.62     1.55     8.82     0  01:46        1.55
  WS02006243           JUNCTION     0.51     1.48     8.90     0  01:46        1.37
  WS02006245           JUNCTION     0.50     1.56     9.05     0  01:46        1.27
  WS02006247           JUNCTION     0.50     1.47     8.97     0  01:46        1.24
  WS02006248           JUNCTION     0.45     1.10     8.69     0  01:46        1.10
  WS02006249           JUNCTION     0.47     1.09     8.69     0  01:46        1.09
  WS02006251           JUNCTION     0.57     2.21     9.88     0  01:59        2.09
  WS02006252           JUNCTION     0.38     1.50     9.74     0  00:00        1.50
  WS02006253           JUNCTION     0.63     3.02    10.66     0  01:59        2.83
  WS02006256           JUNCTION     1.01     2.35     9.28     0  00:00        2.35
  WS02006280           JUNCTION     0.28     1.77    10.05     0  02:00        1.77
  WS02006284           JUNCTION     0.54     1.98    10.38     0  02:00        1.98
  WS02006287           JUNCTION     0.28     1.76    10.71     0  02:00        1.76
  WSF200               JUNCTION     0.22     0.52     5.75     0  02:04        0.52
  YS02001580           JUNCTION     0.07     1.05     9.59     0  01:57        1.05
  YS02001583           JUNCTION     0.11     1.05     9.55     0  01:56        0.96
  YS02001586           JUNCTION     0.18     1.13     9.30     0  01:56        1.13
  YS02001590           JUNCTION     0.28     1.40     9.26     0  01:57        1.40
  YS02001593           JUNCTION     0.21     1.37     9.23     0  01:57        1.37
  YS02001596           JUNCTION     0.28     1.71     9.13     0  01:57        1.71
  YS02001600           JUNCTION     0.36     1.87     9.00     0  01:57        1.87
  YS02001601           JUNCTION     0.55     2.06     8.90     0  01:56        2.06
  YS02001602           JUNCTION     0.46     1.87     8.77     0  01:56        1.87
  YS02001605           JUNCTION     0.43     1.78     8.68     0  02:00        1.78
  YS02001607           JUNCTION     0.42     1.65     8.50     0  02:12        1.65
  YS02001610           JUNCTION     0.46     1.68     8.48     0  01:56        1.68
  YS02001613           JUNCTION     0.42     1.68     8.52     0  01:56        1.66
  YS02001616           JUNCTION     0.35     1.61     8.52     0  01:56        1.61
  YS02001619           JUNCTION     0.33     1.61     8.54     0  02:00        1.61
  YS02001622           JUNCTION     0.32     1.59     8.50     0  02:02        1.59
  YS02001625           JUNCTION     0.57     1.78     8.38     0  01:56        1.78
  YS02001629           JUNCTION     0.44     1.85     8.40     0  01:56        1.85
  YS02001633           JUNCTION     0.52     2.07     8.52     0  02:00        2.01
  YS02001641           JUNCTION     0.49     2.00     8.44     0  02:00        1.96
  YS02001644           JUNCTION     0.49     1.92     8.35     0  02:00        1.92
  YS02001647           JUNCTION     0.27     1.80     8.41     0  02:01        1.69
  YS02001649           JUNCTION     0.31     2.00     8.39     0  02:01        1.83
  YS02001652           JUNCTION     0.20     2.00     8.59     0  02:01        1.63
  YS02001655           JUNCTION     0.15     2.19     9.04     0  02:01        1.42
  YS02001658           JUNCTION     0.10     2.30     9.44     0  02:01        1.25
  YS02001661           JUNCTION     0.14     1.32     8.73     0  02:01        1.07
  YS02001664           JUNCTION     0.05     0.62     8.54     0  02:01        0.58
  YS02001745           JUNCTION     0.05     0.94     8.46     0  02:01        0.62
  YS02001748           JUNCTION     0.09     1.73     8.81     0  02:01        1.08
  YS02001751           JUNCTION     0.12     1.70     8.58     0  02:00        1.24
  YS02001754           JUNCTION     0.17     1.81     8.42     0  02:01        1.49
  YS02001757           JUNCTION     0.32     2.01     8.27     0  02:01        1.83
  YS02001759           JUNCTION     0.26     2.02     8.38     0  02:02        1.84
  YS02001762           JUNCTION     0.25     2.04     8.44     0  02:02        1.85
  YS02001765           JUNCTION     0.24     2.02     8.47     0  02:02        1.84
  YS02001767           JUNCTION     0.24     1.98     8.47     0  02:02        1.86
  YS02001770           JUNCTION     0.25     1.95     8.45     0  02:01        1.92
  YS02001774           JUNCTION     0.31     2.00     8.42     0  02:02        1.99
  YS02001779           JUNCTION     0.15     1.68     8.37     0  01:59        1.68
  YS02001783           JUNCTION     0.23     1.37     7.51     0  01:59        1.24
  YS02001784           JUNCTION     0.25     1.21     7.28     0  01:59        1.11
  YS02001786           JUNCTION     0.21     0.93     6.96     0  01:59        0.87
  YS02001788           JUNCTION     0.15     0.62     6.60     0  01:59        0.62
  YS02001790           JUNCTION     0.18     0.72     6.37     0  02:04        0.72
  YS02001791           JUNCTION     0.12     0.44     5.91     0  01:59        0.43
  YS02001793           JUNCTION     0.06     0.29     5.12     0  02:00        0.28
  YS02001882           JUNCTION     0.29     1.65     8.37     0  01:59        1.64
  YS02001884           JUNCTION     0.38     1.74     8.36     0  01:59        1.74
  YS02001887           JUNCTION     0.45     1.83     8.37     0  02:00        1.83
  YS02001890           JUNCTION     0.48     1.81     8.32     0  01:59        1.81
  YS02001895           JUNCTION     0.26     1.57     8.31     0  02:03        1.55
  YS02001898           JUNCTION     0.27     1.57     8.30     0  01:59        1.55
  YS02001901           JUNCTION     0.38     1.68     8.29     0  01:59        1.67
  YS02001904           JUNCTION     0.36     1.64     8.27     0  02:02        1.63
  YS02001907           JUNCTION     0.67     1.96     8.25     0  01:59        1.96
  YS02001910           JUNCTION     0.47     2.02     8.53     0  01:59        1.97
  YS02001915           JUNCTION     0.29     1.94     8.65     0  02:00        1.94
  YS02001918           JUNCTION     0.15     1.81     8.88     0  01:59        1.81
  YS02001920           JUNCTION     0.23     2.14     9.15     0  01:59        2.01
  YS02001923           JUNCTION     0.11     2.03     9.29     0  01:59        1.91
  YS02001926           JUNCTION     0.15     1.90     9.35     0  01:59        1.90
  YS02001929           JUNCTION     0.08     1.78     9.47     0  01:59        1.73
  YS02006553           JUNCTION     0.67     2.00     8.29     0  01:59        1.98
  YS02006556           JUNCTION     0.65     2.02     8.33     0  01:59        1.97
  YS02006558           JUNCTION     0.69     2.08     8.35     0  01:59        2.00
  YS02006561           JUNCTION     0.14     1.13     7.79     0  01:59        0.89
  YS02163301           JUNCTION     0.46     1.94     8.46     0  02:00        1.91
  YS02163601           JUNCTION     0.55     2.08     8.48     0  02:00        2.03
  YS02164001           JUNCTION     0.48     2.02     8.48     0  02:00        1.95
  YSB1154              JUNCTION     0.42     1.94    10.99     0  02:00        1.94
  YSB1171              JUNCTION     0.57     1.95    10.85     0  01:57        1.95
  YSB1174              JUNCTION     0.38     1.84    10.94     0  02:00        1.84
  YSB6556              JUNCTION     0.32     1.76    10.93     0  01:57        1.75
  CC-1                 OUTFALL      0.00     0.00     0.00     0  00:00        0.00
  CC-2                 OUTFALL      0.00     0.00     0.00     0  00:00        0.00
  JK-1                 OUTFALL      0.00     0.00     0.00     0  00:00        0.00
  JK-2                 OUTFALL      0.00     0.00     0.00     0  00:00        0.00
  WSC                  OUTFALL      0.29     0.51     1.18     0  02:07        0.51
  CC-storage           STORAGE      0.71     1.47     6.97     0  02:27        1.47
  JK-storage           STORAGE      1.44     4.24     5.04     0  02:00        4.18
  XR-storage           STORAGE      7.84     9.26     7.26     0  08:00        9.26
  
  
  *******************
  Node Inflow Summary
  *******************
  
  -------------------------------------------------------------------------------------------------
                                  Maximum  Maximum                  Lateral       Total        Flow
                                  Lateral    Total  Time of Max      Inflow      Inflow     Balance
                                   Inflow   Inflow   Occurrence      Volume      Volume       Error
  Node                 Type           LPS      LPS  days hr:min    10^6 ltr    10^6 ltr     Percent
  -------------------------------------------------------------------------------------------------
  HS02004478           JUNCTION      0.00  2288.78     0  02:02           0         7.7      -0.012
  HS02004479           JUNCTION      0.00   505.78     0  01:59           0        0.74       0.106
  HS02004480           JUNCTION      0.00  2147.68     0  01:57           0        5.82       0.043
  HS02004770           JUNCTION   1253.32  1253.32     0  02:02        2.13        2.37       0.135
  HS02004777           JUNCTION      0.03   771.10     0  01:56    0.000864        1.74       0.304
  HS02004785           JUNCTION      0.15   788.59     0  01:56     0.00432        1.74       0.040
  HS02004788           JUNCTION    455.28   896.25     0  01:57       0.837        2.57      -0.015
  HS02004792           JUNCTION   1499.25  2261.42     0  02:02        2.75        5.32       0.007
  HS02004799           JUNCTION    301.93  1750.60     0  01:58        0.47        5.14       0.052
  HS02004802           JUNCTION      0.00  1028.39     0  02:02           0        1.93       0.208
  HS02004807           JUNCTION    379.44  1028.27     0  02:02       0.576        1.97       0.204
  HS02004817           JUNCTION      0.60   660.94     0  02:03      0.0173        1.46       1.148
  HS02004824           JUNCTION    473.15   692.38     0  01:57        1.02        1.62       0.040
  HS02004830           JUNCTION      0.15   692.29     0  01:57     0.00432       0.786       0.144
  HS02004837           JUNCTION    346.41   902.29     0  01:57       0.729        1.12       0.069
  HS02004842           JUNCTION      0.00   913.18     0  01:58           0        0.72       1.857
  HS02004848           JUNCTION    424.39  1144.96     0  01:58        0.97        1.53       0.023
  HS02004852           JUNCTION      0.00  1137.70     0  01:59           0        1.38       0.009
  HS02004856           JUNCTION    153.58  1261.59     0  01:59       0.238        1.62       0.074
  HS02004862           JUNCTION    197.87  1311.90     0  01:59       0.413        2.03       0.003
  HS02004870           JUNCTION    205.68  1426.25     0  01:59       0.316        2.34      -0.030
  HS02004876           JUNCTION    198.25  1405.09     0  01:59       0.326        2.67       0.041
  HS02004881           JUNCTION    112.36  1505.01     0  01:59       0.167        2.83       0.026
  HS02004901           JUNCTION    308.11   531.42     0  02:03       0.479       0.705       0.252
  WS02001211           JUNCTION      7.35   209.87     0  01:54       0.212        5.44       0.611
  WS02001212           JUNCTION      0.00   214.24     0  02:44           0        5.41       0.290
  WS02001213           JUNCTION      0.00   218.34     0  02:44           0        5.39       0.333
  WS02003059           JUNCTION      0.00   224.68     0  02:43           0        5.38       0.597
  WS02003060           JUNCTION     16.53  1488.35     0  02:05       0.476        13.6       0.110
  WS02003066           JUNCTION      0.00  1286.85     0  02:02           0        7.81       0.021
  WS02003067           JUNCTION      0.00  1286.74     0  02:02           0        7.81       0.058
  WS02003069           JUNCTION      0.32  1488.34     0  02:05     0.00922        13.6       0.116
  WS02003072           JUNCTION      0.00  1488.13     0  02:06           0        13.6       0.156
  WS02003073           JUNCTION      1.82  1489.97     0  02:06      0.0524        13.6       0.162
  WS02004138           JUNCTION      0.00   380.00     0  00:00           0        5.25       0.051
  WS02004139           JUNCTION      0.32   190.32     0  00:29     0.00924        5.26       0.509
  WS02004401           JUNCTION      0.00  1288.40     0  02:02           0        7.92       0.139
  WS02004402           JUNCTION      0.00  1288.82     0  02:02           0        7.91       0.138
  WS02004403           JUNCTION      0.00  1289.55     0  02:02           0         7.9       0.134
  WS02004404           JUNCTION      0.16  1290.62     0  02:02     0.00467         7.9       0.125
  WS02004405           JUNCTION      0.04  1289.45     0  02:02      0.0011        7.89       0.148
  WS02004406           JUNCTION      0.00  1290.48     0  02:02           0        7.87       0.277
  WS02004407           JUNCTION      0.00  1291.05     0  02:02           0        7.85       0.021
  WS02004409           JUNCTION      0.00  1286.57     0  02:02           0        7.85       0.044
  WS02004410           JUNCTION      0.00  1286.95     0  02:02           0        7.85       0.066
  WS02004411           JUNCTION      0.00  1287.04     0  02:02           0        7.84       0.082
  WS02004412           JUNCTION      0.00  1286.84     0  02:02           0        7.84       0.106
  WS02004413           JUNCTION      0.00  1286.80     0  02:02           0        7.83       0.186
  WS02006109           JUNCTION      1.23  1281.79     0  02:02      0.0354        7.75       0.133
  WS02006110           JUNCTION      0.00  1123.16     0  02:17           0        7.57       0.104
  WS02006111           JUNCTION      0.00  1123.43     0  02:17           0        7.56       0.008
  WS02006112           JUNCTION    250.25  1286.80     0  02:01       0.393        7.96       0.262
  WS02006113           JUNCTION      0.00  1123.28     0  02:17           0        7.57       0.030
  WS02006115           JUNCTION      0.00  1286.52     0  02:01           0        7.94       0.097
  WS02006116           JUNCTION      0.00  1287.99     0  02:02           0        7.93       0.055
  WS02006228           JUNCTION      0.00  1280.07     0  02:02           0        7.72       0.060
  WS02006229           JUNCTION      0.00  2286.72     0  02:02           0        9.66       0.085
  WS02006230           JUNCTION     10.28  1018.44     0  02:02       0.296        3.94       0.227
  WS02006231           JUNCTION      0.00   464.11     0  03:10           0         2.9      -0.091
  WS02006232           JUNCTION      0.00   462.55     0  03:10           0        2.89       0.213
  WS02006234           JUNCTION      0.00   458.70     0  03:10           0        2.87      -0.413
  WS02006235           JUNCTION      0.00   455.94     0  03:10           0        2.96       0.454
  WS02006238           JUNCTION      0.00   415.91     0  02:05           0        2.75      -0.152
  WS02006239           JUNCTION      0.00   415.18     0  02:04           0        2.67      -0.215
  WS02006240           JUNCTION      0.00   414.93     0  02:02           0        2.63       0.041
  WS02006242           JUNCTION      0.00   415.29     0  02:09           0        2.61      -0.000
  WS02006243           JUNCTION      0.00   399.34     0  03:33           0        2.27      -0.142
  WS02006245           JUNCTION      0.00   410.05     0  03:33           0        2.28       0.562
  WS02006247           JUNCTION      0.00   408.87     0  03:32           0        2.28      -0.029
  WS02006248           JUNCTION      0.00   428.09     0  03:32           0        2.49      -0.139
  WS02006249           JUNCTION      0.00  1341.60     0  02:00           0        5.35       0.206
  WS02006251           JUNCTION      0.08  1537.72     0  01:59     0.00222        5.45      -0.014
  WS02006252           JUNCTION      0.00   598.62     0  01:59           0        2.86      -0.539
  WS02006253           JUNCTION     30.01  1535.20     0  01:59      0.0403        2.93       0.038
  WS02006256           JUNCTION      0.00   300.00     0  00:00           0       0.988      -3.553
  WS02006280           JUNCTION      0.00  2287.44     0  02:02           0        7.69       0.008
  WS02006284           JUNCTION      0.10  2288.10     0  02:02     0.00275        7.69      -0.004
  WS02006287           JUNCTION      0.00  2286.48     0  02:02           0        7.69       0.010
  WSF200               JUNCTION      0.00  1287.15     0  02:02           0        7.81       0.010
  YS02001580           JUNCTION      0.00   114.66     0  01:56           0     0.00418      -2.316
  YS02001583           JUNCTION      0.00   187.56     0  01:56           0      0.0149      -5.683
  YS02001586           JUNCTION    537.66   537.86     0  02:04        1.32        1.33       0.110
  YS02001590           JUNCTION      0.00   318.66     0  02:12           0        1.16      -0.033
  YS02001593           JUNCTION      0.00   318.42     0  02:12           0        1.16       0.008
  YS02001596           JUNCTION      0.00   318.04     0  02:02           0        1.16      -0.002
  YS02001600           JUNCTION      0.00   318.40     0  02:12           0        1.16       0.014
  YS02001601           JUNCTION    998.41  1316.24     0  02:03        1.85        3.01       0.025
  YS02001602           JUNCTION      0.00   529.84     0  01:56           0        2.07       0.019
  YS02001605           JUNCTION      0.00   529.73     0  01:56           0        1.99       0.019
  YS02001607           JUNCTION      0.00   529.59     0  01:56           0        1.99       0.100
  YS02001610           JUNCTION      0.00   530.32     0  01:56           0        2.02       0.112
  YS02001613           JUNCTION      0.00   534.29     0  01:56           0        1.71       0.086
  YS02001616           JUNCTION      0.00   537.65     0  01:56           0        1.71       0.024
  YS02001619           JUNCTION    956.44   956.44     0  02:04         2.1        3.77       0.001
  YS02001622           JUNCTION      0.00   935.77     0  01:58           0        3.74      -0.003
  YS02001625           JUNCTION      0.00  1060.04     0  02:04           0        3.78       0.236
  YS02001629           JUNCTION      0.00   935.00     0  01:58           0        3.23       0.011
  YS02001633           JUNCTION    748.47  1407.99     0  01:58        1.34        4.51       0.073
  YS02001641           JUNCTION      0.00  1402.09     0  01:58           0        4.46       0.060
  YS02001644           JUNCTION    670.14  1848.47     0  01:59        1.16        5.61       0.058
  YS02001647           JUNCTION      0.00  1847.35     0  01:59           0        5.54       0.005
  YS02001649           JUNCTION      0.00  2129.22     0  01:58           0         6.6       0.003
  YS02001652           JUNCTION      0.00   821.45     0  02:02           0        1.06      -0.083
  YS02001655           JUNCTION      0.15   820.34     0  02:02     0.00443        1.06      -0.013
  YS02001658           JUNCTION      0.00   819.23     0  02:02           0        1.05      -0.130
  YS02001661           JUNCTION      0.00   763.24     0  02:01           0        1.05      -0.008
  YS02001664           JUNCTION    656.67   656.67     0  02:02        1.05        1.05      -0.010
  YS02001745           JUNCTION    429.69   512.57     0  02:00       0.644       0.644       0.239
  YS02001748           JUNCTION      0.04   574.07     0  02:01      0.0013       0.647      -0.416
  YS02001751           JUNCTION      0.01   579.18     0  02:01    0.000317       0.655       0.106
  YS02001754           JUNCTION      0.26   580.74     0  02:01     0.00749       0.668      -0.181
  YS02001757           JUNCTION      0.00  3483.99     0  02:01           0        9.51       0.058
  YS02001759           JUNCTION    594.49  1388.53     0  02:01       0.887        2.25      -0.002
  YS02001762           JUNCTION      0.00   812.56     0  02:03           0        1.36      -0.004
  YS02001765           JUNCTION      0.00   812.47     0  02:03           0        1.36       0.013
  YS02001767           JUNCTION      0.54   811.64     0  02:03      0.0154        1.36      -0.001
  YS02001770           JUNCTION    831.78   831.78     0  02:02        1.36         1.4       0.006
  YS02001774           JUNCTION      0.00   420.15     0  01:59           0      0.0737       1.438
  YS02001779           JUNCTION      0.01   424.17     0  01:59    0.000144       0.031      -2.022
  YS02001783           JUNCTION      0.00  1160.68     0  02:01           0        3.57       0.008
  YS02001784           JUNCTION      1.06  1162.02     0  02:01      0.0305         3.6       0.013
  YS02001786           JUNCTION      0.06  1162.04     0  02:01     0.00162         3.6       0.017
  YS02001788           JUNCTION      0.07  1162.32     0  02:02     0.00204         3.6       0.008
  YS02001790           JUNCTION      0.15  1172.71     0  01:59     0.00446        3.61       0.021
  YS02001791           JUNCTION      0.00  1286.13     0  02:04           0        3.61      -0.021
  YS02001793           JUNCTION      0.00  1253.57     0  01:59           0        3.61       0.007
  YS02001882           JUNCTION      0.00    54.07     0  01:57           0      0.0128       5.134
  YS02001884           JUNCTION      0.00    65.61     0  01:57           0      0.0488       5.447
  YS02001887           JUNCTION    647.42   648.90     0  02:01       0.935       0.969       0.467
  YS02001890           JUNCTION      0.00   648.64     0  02:01           0       0.927       0.558
  YS02001895           JUNCTION      0.00   518.19     0  02:04           0       0.892       0.187
  YS02001898           JUNCTION      0.00   517.85     0  02:04           0       0.891       0.010
  YS02001901           JUNCTION      0.00   517.47     0  02:04           0       0.893       0.375
  YS02001904           JUNCTION      0.00   516.89     0  02:04           0       0.897       0.317
  YS02001907           JUNCTION      0.00  1615.89     0  02:04           0        2.94       0.611
  YS02001910           JUNCTION      0.00  1101.56     0  02:00           0        2.05       0.349
  YS02001915           JUNCTION    727.61  1101.09     0  02:00        1.29         2.1       0.077
  YS02001918           JUNCTION      0.00   471.97     0  01:59           0       0.839      -0.012
  YS02001920           JUNCTION      2.87   468.11     0  01:59      0.0827        0.82       0.076
  YS02001923           JUNCTION      0.04   468.29     0  01:59     0.00109       0.721      -0.137
  YS02001926           JUNCTION      0.05   721.21     0  01:59      0.0015       0.699       0.015
  YS02001929           JUNCTION    348.36   598.23     0  01:59        0.68       0.685       0.002
  YS02006553           JUNCTION      0.00   800.66     0  02:16           0        2.25       0.526
  YS02006556           JUNCTION      0.00   800.33     0  02:16           0        2.26       0.360
  YS02006558           JUNCTION    855.16  1178.28     0  01:59        1.36         3.6       0.101
  YS02006561           JUNCTION      0.00  1176.63     0  01:59           0        3.57      -0.004
  YS02163301           JUNCTION      0.00   934.56     0  01:58           0        3.22       0.044
  YS02163601           JUNCTION      0.11  1406.72     0  01:58     0.00317        4.45       0.110
  YS02164001           JUNCTION      0.00  1404.69     0  01:58           0        4.45       0.050
  YSB1154              JUNCTION    343.06   343.06     0  02:02       0.562       0.563       0.256
  YSB1171              JUNCTION      0.00   698.10     0  02:03           0        1.01       0.632
  YSB1174              JUNCTION    304.43   304.43     0  02:01       0.427       0.428       0.294
  YSB6556              JUNCTION      0.00   343.65     0  02:02           0       0.564       0.213
  CC-1                 OUTFALL       0.00   683.00     0  00:00           0        3.78       0.000
  CC-2                 OUTFALL       0.00   683.00     0  00:00           0        3.77       0.000
  JK-1                 OUTFALL       0.00  1000.00     0  00:00           0        1.97       0.000
  JK-2                 OUTFALL       0.00  1000.00     0  00:00           0       0.783       0.000
  WSC                  OUTFALL       0.00  1490.23     0  02:07           0        13.6       0.000
  CC-storage           STORAGE       0.00  3484.42     0  02:01           0        11.7      -0.265
  JK-storage           STORAGE       0.00  1260.19     0  02:13           0        3.76      -0.462
  XR-storage           STORAGE     200.00   200.00     0  00:00        5.76        6.36       0.001
  
  
  **********************
  Node Surcharge Summary
  **********************
  
  Surcharging occurs when water rises above the top of the highest conduit.
  ---------------------------------------------------------------------
                                               Max. Height   Min. Depth
                                   Hours       Above Crown    Below Rim
  Node                 Type      Surcharged         Meters       Meters
  ---------------------------------------------------------------------
  HS02004478           JUNCTION        0.39          0.671        0.269
  HS02004479           JUNCTION        0.51          0.899        0.151
  HS02004480           JUNCTION        0.55          0.969        0.131
  HS02004770           JUNCTION        0.46          0.720        0.000
  HS02004777           JUNCTION        0.47          0.780        0.000
  HS02004785           JUNCTION        0.42          0.790        0.000
  HS02004788           JUNCTION        0.40          0.720        0.000
  HS02004792           JUNCTION        0.52          0.900        0.000
  HS02004799           JUNCTION        0.63          1.060        0.000
  HS02004802           JUNCTION        0.55          1.095        0.115
  HS02004807           JUNCTION        0.54          1.220        0.000
  HS02004817           JUNCTION        1.10          1.740        0.000
  HS02004824           JUNCTION        0.41          1.310        0.000
  HS02004830           JUNCTION        0.39          1.330        0.000
  HS02004837           JUNCTION        0.35          1.264        0.076
  HS02004842           JUNCTION        0.47          1.520        0.000
  HS02004848           JUNCTION        0.32          1.330        0.040
  HS02004852           JUNCTION        0.34          1.363        0.057
  HS02004856           JUNCTION        0.32          1.300        0.000
  HS02004862           JUNCTION        0.36          1.300        0.000
  HS02004870           JUNCTION        0.37          1.400        0.000
  HS02004876           JUNCTION        0.45          1.436        0.124
  HS02004881           JUNCTION        0.43          1.181        0.269
  HS02004901           JUNCTION        0.47          0.720        0.000
  WS02004401           JUNCTION        1.44          0.835        0.825
  WS02004402           JUNCTION        1.46          0.777        0.963
  WS02004403           JUNCTION        1.47          0.705        1.325
  WS02004404           JUNCTION        1.61          0.712        2.068
  WS02004405           JUNCTION        1.60          0.660        2.140
  WS02004406           JUNCTION        1.57          0.549        1.901
  WS02004409           JUNCTION        0.85          0.388        1.972
  WS02004410           JUNCTION        0.83          0.283        2.257
  WS02004411           JUNCTION        0.76          0.195        2.335
  WS02004412           JUNCTION        0.66          0.098        2.212
  WS02004413           JUNCTION        1.17          0.141        2.059
  WS02006109           JUNCTION        1.90          1.820        0.000
  WS02006110           JUNCTION        1.69          1.473        0.377
  WS02006111           JUNCTION        1.08          0.911        0.959
  WS02006112           JUNCTION        1.76          1.360        0.320
  WS02006113           JUNCTION        1.11          1.021        0.909
  WS02006115           JUNCTION        1.34          0.934        1.316
  WS02006116           JUNCTION        1.37          0.881        1.409
  WS02006228           JUNCTION        1.89          2.200        0.000
  WS02006229           JUNCTION        0.82          1.069        0.001
  WS02006230           JUNCTION        1.61          1.570        0.000
  WS02006231           JUNCTION        1.62          1.479        0.051
  WS02006232           JUNCTION        1.75          1.480        0.000
  WS02006234           JUNCTION        1.64          1.240        0.000
  WS02006235           JUNCTION        1.66          1.248        0.042
  WS02006238           JUNCTION        1.68          1.250        0.180
  WS02006239           JUNCTION        1.63          1.086        0.204
  WS02006240           JUNCTION        1.62          0.943        0.447
  WS02006242           JUNCTION        1.66          0.820        0.000
  WS02006243           JUNCTION        1.59          0.770        0.000
  WS02006245           JUNCTION        1.58          0.850        0.000
  WS02006247           JUNCTION        1.59          0.760        0.000
  WS02006248           JUNCTION        1.57          0.380        0.000
  WS02006249           JUNCTION        1.58          0.390        0.000
  WS02006251           JUNCTION        1.54          1.180        0.000
  WS02006252           JUNCTION        1.86          1.100        0.000
  WS02006253           JUNCTION        1.54          1.980        0.500
  WS02006256           JUNCTION        7.33          2.050        0.000
  WS02006280           JUNCTION        0.65          0.725        0.055
  WS02006284           JUNCTION        0.57          0.697        0.103
  WS02006287           JUNCTION        0.49          0.756        0.134
  YS02001580           JUNCTION        0.48          0.450        0.000
  YS02001583           JUNCTION        0.48          0.412        0.088
  YS02001586           JUNCTION        0.61          0.510        0.000
  YS02001590           JUNCTION        0.68          0.750        0.000
  YS02001593           JUNCTION        0.68          0.749        0.091
  YS02001596           JUNCTION        0.78          0.978        0.092
  YS02001600           JUNCTION        0.93          1.190        0.000
  YS02001601           JUNCTION        1.33          1.440        0.000
  YS02001602           JUNCTION        1.20          1.270        0.000
  YS02001605           JUNCTION        1.13          1.180        0.000
  YS02001607           JUNCTION        0.64          0.650        0.030
  YS02001610           JUNCTION        0.66          0.680        0.000
  YS02001613           JUNCTION        0.63          0.676        0.024
  YS02001616           JUNCTION        0.59          0.610        0.000
  YS02001619           JUNCTION        0.58          0.610        0.000
  YS02001622           JUNCTION        0.57          0.593        0.027
  YS02001625           JUNCTION        0.75          0.780        0.000
  YS02001629           JUNCTION        0.52          0.470        0.000
  YS02001633           JUNCTION        0.76          1.045        0.015
  YS02001641           JUNCTION        0.69          0.998        0.102
  YS02001644           JUNCTION        0.65          0.920        0.000
  YS02001647           JUNCTION        0.46          0.803        0.097
  YS02001649           JUNCTION        0.56          1.000        0.050
  YS02001652           JUNCTION        0.38          0.967        0.163
  YS02001655           JUNCTION        0.24          1.186        0.014
  YS02001658           JUNCTION        0.10          1.300        0.000
  YS02001661           JUNCTION        0.01          0.255        1.135
  YS02001748           JUNCTION        0.01          0.649        0.541
  YS02001751           JUNCTION        0.13          0.697        0.503
  YS02001754           JUNCTION        0.27          0.758        0.392
  YS02001757           JUNCTION        0.60          1.007        0.203
  YS02001759           JUNCTION        0.51          1.020        0.190
  YS02001762           JUNCTION        0.48          1.039        0.111
  YS02001765           JUNCTION        0.44          1.015        0.085
  YS02001767           JUNCTION        0.41          0.981        0.049
  YS02001770           JUNCTION        0.38          0.920        0.000
  YS02001774           JUNCTION        0.46          1.001        0.049
  YS02001779           JUNCTION        0.28          0.680        0.000
  YS02001783           JUNCTION        0.45          0.566        1.034
  YS02001784           JUNCTION        0.42          0.415        1.075
  YS02001786           JUNCTION        0.33          0.128        1.302
  YS02001882           JUNCTION        0.40          0.654        0.176
  YS02001884           JUNCTION        0.41          0.683        0.187
  YS02001887           JUNCTION        0.44          0.780        0.170
  YS02001890           JUNCTION        0.45          0.760        0.000
  YS02001895           JUNCTION        0.39          0.567        0.183
  YS02001898           JUNCTION        0.38          0.535        0.205
  YS02001901           JUNCTION        0.43          0.678        0.192
  YS02001904           JUNCTION        0.42          0.641        0.209
  YS02001907           JUNCTION        0.65          0.950        0.000
  YS02001910           JUNCTION        0.48          1.019        0.081
  YS02001915           JUNCTION        0.39          0.936        0.064
  YS02001918           JUNCTION        0.32          0.810        0.000
  YS02001920           JUNCTION        0.33          1.140        0.000
  YS02001923           JUNCTION        0.01          0.820        0.000
  YS02001926           JUNCTION        0.02          0.900        0.000
  YS02001929           JUNCTION        0.01          0.780        0.000
  YS02006553           JUNCTION        0.66          1.002        0.188
  YS02006556           JUNCTION        0.56          0.979        0.371
  YS02006558           JUNCTION        0.55          0.979        0.421
  YS02006561           JUNCTION        0.28          0.326        0.824
  YS02163301           JUNCTION        0.74          0.943        0.087
  YS02163601           JUNCTION        0.79          1.080        0.000
  YS02164001           JUNCTION        0.70          1.020        0.080
  YSB1154              JUNCTION        0.74          1.236        0.164
  YSB1171              JUNCTION        0.74          1.100        0.000
  YSB1174              JUNCTION        0.66          1.136        0.114
  YSB6556              JUNCTION        0.61          1.056        0.044
  
  
  *********************
  Node Flooding Summary
  *********************
  
  Flooding refers to all water that overflows a node, whether it ponds or not.
  --------------------------------------------------------------------------
                                                             Total   Maximum
                                 Maximum   Time of Max       Flood    Ponded
                        Hours       Rate    Occurrence      Volume     Depth
  Node                 Flooded       LPS   days hr:min    10^6 ltr    Meters
  --------------------------------------------------------------------------
  HS02004770              0.27    744.00      0  02:02       0.400     0.000
  HS02004777              0.01     86.17      0  01:57       0.001     0.000
  HS02004785              0.01     94.85      0  01:57       0.000     0.000
  HS02004788              0.01    291.92      0  01:57       0.002     0.000
  HS02004792              0.28   1118.76      0  02:02       0.650     0.000
  HS02004799              0.11    174.61      0  02:01       0.038     0.000
  HS02004807              0.01     32.44      0  01:59       0.000     0.000
  HS02004817              0.01      8.88      0  01:59       0.000     0.000
  HS02004824              0.01     12.42      0  01:59       0.000     0.000
  HS02004830              0.01      7.38      0  01:59       0.000     0.000
  HS02004842              0.01    102.63      0  01:59       0.001     0.000
  HS02004856              0.01    309.92      0  01:59       0.002     0.000
  HS02004862              0.01     86.80      0  01:59       0.001     0.000
  HS02004870              0.01    298.67      0  01:59       0.001     0.000
  HS02004901              0.34    531.42      0  02:03       0.469     0.000
  WS02006109              0.33    247.21      0  02:02       0.171     0.000
  WS02006228              0.01      1.42      0  02:00       0.000     0.000
  WS02006230              0.58    565.63      0  02:02       0.759     0.000
  WS02006232              0.13      0.97      0  01:53       0.000     0.000
  WS02006234              0.64    129.93      0  02:29       0.247     0.000
  WS02006242              0.75    137.48      0  02:04       0.330     0.000
  WS02006243              0.01     92.79      0  01:46       0.000     0.000
  WS02006245              0.01     25.97      0  01:46       0.000     0.000
  WS02006247              0.01    134.90      0  01:46       0.000     0.000
  WS02006248              0.96    344.42      0  01:55       1.025     0.000
  WS02006249              1.54   1279.17      0  02:00       3.662     0.000
  WS02006251              0.01     66.78      0  01:59       0.000     0.000
  WS02006252              0.37    598.43      0  01:59       0.358     0.000
  WS02006256              0.91    293.83      0  02:26       0.567     0.000
  YS02001580              0.01     95.28      0  01:57       0.000     0.000
  YS02001586              0.37    220.18      0  02:04       0.158     0.000
  YS02001590              0.01      5.65      0  01:57       0.000     0.000
  YS02001600              0.01      4.24      0  01:57       0.000     0.000
  YS02001601              0.54    918.15      0  02:03       0.934     0.000
  YS02001602              0.43     61.98      0  02:19       0.085     0.000
  YS02001605              0.01      0.39      0  02:15       0.000     0.000
  YS02001610              0.36    445.78      0  02:05       0.348     0.000
  YS02001616              0.01      5.27      0  01:56       0.000     0.000
  YS02001619              0.01      0.63      0  02:00       0.000     0.000
  YS02001625              0.33   1059.92      0  02:05       0.594     0.000
  YS02001629              0.07    159.31      0  02:02       0.022     0.000
  YS02001644              0.08    465.64      0  02:02       0.062     0.000
  YS02001658              0.01    397.87      0  02:01       0.000     0.000
  YS02001770              0.01     11.56      0  02:02       0.000     0.000
  YS02001779              0.05    378.27      0  01:59       0.013     0.000
  YS02001890              0.10    141.14      0  02:01       0.030     0.000
  YS02001907              0.26   1271.67      0  02:01       0.681     0.000
  YS02001918              0.01    256.19      0  02:00       0.004     0.000
  YS02001920              0.01     27.79      0  01:59       0.000     0.000
  YS02001923              0.01    343.21      0  01:59       0.002     0.000
  YS02001926              0.01    110.37      0  01:59       0.001     0.000
  YS02001929              0.01    200.95      0  01:59       0.001     0.000
  YS02163601              0.01      6.05      0  02:00       0.000     0.000
  YSB1171                 0.19    697.45      0  02:03       0.282     0.000
  
  
  **********************
  Storage Volume Summary
  **********************
  
  --------------------------------------------------------------------------------------------------
                         Average     Avg  Evap Exfil       Maximum     Max    Time of Max    Maximum
                          Volume    Pcnt  Pcnt  Pcnt        Volume    Pcnt     Occurrence    Outflow
  Storage Unit           1000 m3    Full  Loss  Loss       1000 m3    Full    days hr:min        LPS
  --------------------------------------------------------------------------------------------------
  CC-storage               1.988      31     0     0         4.092      64       0  02:27    1783.53
  JK-storage               0.072      25     0     0         0.213      73       0  02:00    2300.00
  XR-storage               0.940      65     0     0         1.111      77       0  08:00     380.00
  
  
  ***********************
  Outfall Loading Summary
  ***********************
  
  -----------------------------------------------------------
                         Flow       Avg       Max       Total
                         Freq      Flow      Flow      Volume
  Outfall Node           Pcnt       LPS       LPS    10^6 ltr
  -----------------------------------------------------------
  CC-1                  31.35    683.00    683.00       3.781
  CC-2                  31.72    683.00    683.00       3.771
  JK-1                   9.96   1000.00   1000.00       1.968
  JK-2                   4.40   1000.00   1000.00       0.783
  WSC                   99.95    598.72   1490.23      13.612
  -----------------------------------------------------------
  System                35.48   3964.72   4856.14      23.916
  
  
  ********************
  Link Flow Summary
  ********************
  
  -----------------------------------------------------------------------------
                                 Maximum  Time of Max   Maximum    Max/    Max/
                                  |Flow|   Occurrence   |Veloc|    Full    Full
  Link                 Type          LPS  days hr:min     m/sec    Flow   Depth
  -----------------------------------------------------------------------------
  1                    CONDUIT   1490.23     0  02:07      3.69    0.52    0.51
  HS02004478WS02006287 CONDUIT   2286.48     0  02:02      2.62    0.64    1.00
  HS02004479HS02004480 CONDUIT    505.56     0  01:59      0.72    0.49    1.00
  HS02004480HS02004478 CONDUIT   2145.75     0  01:57      3.07    9.04    1.00
  HS02004770HS02004777 CONDUIT    771.07     0  01:56      1.10    1.41    1.00
  HS02004777HS02004785 CONDUIT    788.44     0  01:56      1.18    0.97    1.00
  HS02004785HS02004788 CONDUIT    669.17     0  01:57      1.35    5.05    1.00
  HS02004788HS02004792 CONDUIT    809.82     0  02:17      1.43    0.54    1.00
  HS02004792HS02004799 CONDUIT   1573.85     0  01:57      2.25    0.96    1.00
  HS02004799HS02004480 CONDUIT   1750.67     0  01:57      2.50    2.21    1.00
  HS02004802HS02004478 CONDUIT   1029.43     0  02:02      1.47    0.91    1.00
  HS02004807HS02004802 CONDUIT   1028.39     0  02:02      1.47    1.96    1.00
  HS02004817HS02004807 CONDUIT    660.99     0  02:03      0.94    0.39    1.00
  HS02004817HS02004824 CONDUIT    660.34     0  02:03      0.94    0.30    1.00
  HS02004824HS02004830 CONDUIT    692.14     0  01:57      1.01    0.91    1.00
  HS02004830HS02004837 CONDUIT    698.15     0  01:57      1.07    0.70    1.00
  HS02004837HS02004842 CONDUIT    913.18     0  01:58      1.30    0.55    1.00
  HS02004842HS02004848 CONDUIT    912.06     0  01:58      1.46    0.53    1.00
  HS02004848HS02004852 CONDUIT   1137.70     0  01:59      1.66    1.28    1.00
  HS02004852HS02004856 CONDUIT   1147.80     0  01:59      1.64    1.31    1.00
  HS02004856HS02004862 CONDUIT   1170.67     0  01:59      1.72    1.17    1.00
  HS02004862HS02004870 CONDUIT   1265.04     0  01:59      1.93    1.37    1.00
  HS02004870HS02004876 CONDUIT   1240.75     0  01:59      1.85    0.82    1.00
  HS02004876HS02004881 CONDUIT   1408.09     0  01:59      2.34   14.98    1.00
  HS02004881HS02006253 CONDUIT   1508.36     0  01:59      2.77    0.29    1.00
  HS02004901HS02004770 CONDUIT    265.73     0  02:13      0.38    1.00    1.00
  WS02001211WS02001212 CONDUIT    214.24     0  02:44      0.54    0.16    0.69
  WS02001212WS02001213 CONDUIT    218.34     0  02:44      1.04    0.34    0.56
  WS02001213WS02003059 CONDUIT    224.68     0  02:43      0.47    0.37    0.89
  WS02003059WS02003060 CONDUIT    230.40     0  02:43      0.66    0.15    0.81
  WS02003060WS02003069 CONDUIT   1488.02     0  02:05      2.08    0.58    0.61
  WS02003066WSF200     CONDUIT   1287.15     0  02:02      3.26    0.22    0.38
  WS02003067WS02003066 CONDUIT   1286.85     0  02:02      1.99    0.41    0.56
  WS02003069WS02003072 CONDUIT   1488.13     0  02:06      1.89    0.72    0.66
  WS02003072WS02003073 CONDUIT   1488.15     0  02:06      2.04    3.21    0.61
  WS02004138WS02004139 CONDUIT    190.00     0  00:29      2.16    0.04    0.41
  WS02004139WS02001211 CONDUIT    202.52     0  01:54      0.54    0.26    0.60
  WS02004401WS02004402 CONDUIT   1288.82     0  02:02      1.64    1.55    1.00
  WS02004402WS02004403 CONDUIT   1289.55     0  02:02      1.64    1.85    1.00
  WS02004403WS02004404 CONDUIT   1290.46     0  02:02      1.64    0.93    1.00
  WS02004404WS02004405 CONDUIT   1289.41     0  02:02      1.64   12.63    1.00
  WS02004405WS02004406 CONDUIT   1290.48     0  02:02      1.64    2.55    1.00
  WS02004406WS02004407 CONDUIT   1291.05     0  02:02      1.77    0.58    0.95
  WS02004407WS02004409 CONDUIT   1286.57     0  02:02      1.87    0.46    0.95
  WS02004409WS02004410 CONDUIT   1286.95     0  02:02      1.64    1.66    1.00
  WS02004410WS02004411 CONDUIT   1287.04     0  02:02      1.64    1.76    1.00
  WS02004411WS02004412 CONDUIT   1286.84     0  02:02      1.64    1.83    1.00
  WS02004412WS02004413 CONDUIT   1286.80     0  02:02      1.64    0.86    1.00
  WS02004413WS02003067 CONDUIT   1286.74     0  02:02      2.00    0.55    0.76
  WS02006109WS02006110 CONDUIT   1123.16     0  02:17      2.23    2.16    1.00
  WS02006110WS02006113 CONDUIT   1123.28     0  02:17      2.23    1.02    1.00
  WS02006111WS02006112 CONDUIT   1123.51     0  02:17      2.24    0.53    1.00
  WS02006112WS02006115 CONDUIT   1286.52     0  02:01      1.64    0.76    1.00
  WS02006113WS02006111 CONDUIT   1123.43     0  02:17      2.64    1.35    1.00
  WS02006115WS02006116 CONDUIT   1287.99     0  02:02      1.64    1.65    1.00
  WS02006116WS02004401 CONDUIT   1288.40     0  02:02      1.64    1.78    1.00
  WS02006228WS02006109 CONDUIT   1280.56     0  02:02      2.55    5.60    1.00
  WS02006229WS02006228 CONDUIT   1280.07     0  02:02      2.55    4.24    1.00
  WS02006230WS02006229 CONDUIT   1008.17     0  02:02      2.62   22.44    1.00
  WS02006231WS02006230 CONDUIT    465.17     0  03:10      1.38    7.06    1.00
  WS02006232WS02006231 CONDUIT    464.11     0  03:10      1.21    0.97    1.00
  WS02006234WS02006232 CONDUIT    462.55     0  03:10      1.41    0.94    1.00
  WS02006235WS02006234 CONDUIT    458.70     0  03:10      1.23    4.84    1.00
  WS02006238WS02006235 CONDUIT    415.91     0  02:05      1.45    0.93    1.00
  WS02006239WS02006238 CONDUIT    415.18     0  02:04      1.12    1.33    1.00
  WS02006240WS02006239 CONDUIT    414.93     0  02:02      1.26    1.31    1.00
  WS02006242WS02006240 CONDUIT    415.29     0  02:09      1.14    1.65    1.00
  WS02006243WS02006242 CONDUIT    394.88     0  03:20      1.34    0.84    1.00
  WS02006245WS02006243 CONDUIT    399.34     0  03:33      1.39    1.18    1.00
  WS02006247WS02006245 CONDUIT    410.05     0  03:33      1.37    3.25    1.00
  WS02006248WS02006247 CONDUIT    408.87     0  03:32      1.38    0.89    1.00
  WS02006249WS02006248 CONDUIT    428.09     0  03:32      1.38    2.35    1.00
  WS02006251WS02006249 CONDUIT   1341.60     0  02:00      3.49    3.87    1.00
  WS02006252WS02006251 CONDUIT    410.47     0  01:50     26.04    1.51    1.00
  WS02006253WS02006251 CONDUIT   1537.64     0  01:59      4.00    4.61    1.00
  WS02006256WS02006235 CONDUIT    288.93     0  00:00      4.23    3.06    1.00
  WS02006280WS02006229 CONDUIT   2286.72     0  02:02      4.42    0.49    1.00
  WS02006284WS02006280 CONDUIT   2287.44     0  02:02      2.96    0.96    1.00
  WS02006287WS02006284 CONDUIT   2288.00     0  02:02      2.91    1.06    1.00
  WSF200WS02003060     CONDUIT   1287.81     0  02:02      2.35    0.29    0.50
  YS02001580YS02001583 CONDUIT    114.66     0  01:56      0.73    0.44    1.00
  YS02001583YS02001586 CONDUIT    175.01     0  01:56      0.74    0.26    1.00
  YS02001586YS02001590 CONDUIT    318.66     0  02:12      1.26    0.56    1.00
  YS02001590YS02001593 CONDUIT    318.42     0  02:12      1.13    2.00    1.00
  YS02001593YS02001596 CONDUIT    318.04     0  02:02      1.74    0.50    1.00
  YS02001596YS02001600 CONDUIT    318.40     0  02:12      1.22    0.62    1.00
  YS02001600YS02001601 CONDUIT    318.08     0  02:12      1.12    0.55    1.00
  YS02001601YS02001602 CONDUIT    529.84     0  01:56      1.87    1.91    1.00
  YS02001602YS02001605 CONDUIT    529.73     0  01:56      1.87   11.21    1.00
  YS02001605YS02001607 CONDUIT    529.59     0  01:56      1.87    2.90    1.00
  YS02001607YS02001610 CONDUIT    530.32     0  01:56      0.68    0.50    1.00
  YS02001610YS02001613 CONDUIT    534.29     0  01:56      0.68    0.62    1.00
  YS02001613YS02001616 CONDUIT    537.65     0  01:56      0.69    0.46    1.00
  YS02001616YS02001619 CONDUIT    506.67     0  01:56      0.67    0.88    1.00
  YS02001619YS02001622 CONDUIT    935.77     0  01:58      1.20    1.38    1.00
  YS02001622YS02001625 CONDUIT    935.05     0  01:58      1.19    0.50    1.00
  YS02001625YS02001629 CONDUIT    935.00     0  01:58      1.19    0.44    1.00
  YS02001629YS02163301 CONDUIT    934.56     0  01:58      1.19    1.15    1.00
  YS02001633YS02163601 CONDUIT   1406.61     0  01:58      1.79    1.48    1.00
  YS02001641YS02001644 CONDUIT   1402.54     0  01:58      1.79    4.53    1.00
  YS02001644YS02001647 CONDUIT   1847.35     0  01:59      2.37    1.09    1.00
  YS02001647YS02001649 CONDUIT   1857.51     0  01:58      2.39    0.98    1.00
  YS02001649YS02001757 CONDUIT   2094.94     0  01:59      2.67    1.27    1.00
  YS02001652YS02001649 CONDUIT    822.91     0  02:02      1.05    0.41    1.00
  YS02001655YS02001652 CONDUIT    821.45     0  02:02      1.35    0.40    1.00
  YS02001658YS02001655 CONDUIT    820.19     0  02:02      1.95    0.35    1.00
  YS02001661YS02001658 CONDUIT    819.23     0  02:02      2.40    0.32    1.00
  YS02001664YS02001661 CONDUIT    763.24     0  02:01      2.42    0.24    0.81
  YS02001745YS02001748 CONDUIT    574.02     0  02:01      2.30    0.22    0.97
  YS02001748YS02001751 CONDUIT    579.17     0  02:01      1.76    0.29    1.00
  YS02001751YS02001754 CONDUIT    580.48     0  02:01      1.47    0.28    1.00
  YS02001754YS02001757 CONDUIT    581.74     0  02:01      0.74    0.23    1.00
  YS02001757CaochengTiaoxuchi CONDUIT   3484.42     0  02:01      4.52    1.51    1.00
  YS02001759YS02001757 CONDUIT   1389.67     0  02:00      1.77    0.99    1.00
  YS02001762YS02001759 CONDUIT    813.21     0  02:03      1.04    0.94    1.00
  YS02001765YS02001762 CONDUIT    812.56     0  02:03      1.03    0.76    1.00
  YS02001767YS02001765 CONDUIT    812.47     0  02:03      1.03    1.02    1.00
  YS02001770YS02001767 CONDUIT    811.11     0  02:03      1.03    3.21    1.00
  YS02001774YS02001770 CONDUIT    420.15     0  01:59      0.53    0.27    1.00
  YS02001779YS02001774 CONDUIT    424.16     0  01:59      0.54    0.21    1.00
  YS02001783YS02001784 CONDUIT   1160.96     0  02:01      2.31    1.60    1.00
  YS02001784YS02001785 CONDUIT   1161.99     0  02:01      2.31    2.70    1.00
  YS02001786YS02001788 CONDUIT   1162.25     0  02:02      2.48    2.24    0.89
  YS02001788YS02001790 CONDUIT   1172.55     0  01:59      2.71    0.86    0.84
  YS02001790YS02001791 CONDUIT   1286.13     0  02:04      3.43    1.40    0.70
  YS02001791YS02001793 CONDUIT   1253.57     0  01:59      6.77    0.54    0.43
  YS02001793JiankangQianchi CONDUIT   1260.19     0  02:13      2.52    0.10    0.64
  YS02001882YS02001884 CONDUIT     54.07     0  01:57      0.12    0.06    1.00
  YS02001884YS02001887 CONDUIT     65.61     0  01:57      0.09    0.09    1.00
  YS02001887YS02001890 CONDUIT    648.64     0  02:01      0.83    1.11    1.00
  YS02001890YS02001895 CONDUIT    518.19     0  02:04      0.66    0.24    1.00
  YS02001895YS02001898 CONDUIT    517.85     0  02:04      0.66    0.90    1.00
  YS02001898YS02001901 CONDUIT    517.47     0  02:04      0.66    0.33    1.00
  YS02001901YS02001904 CONDUIT    516.89     0  02:04      0.66    0.80    1.00
  YS02001904YS02001907 CONDUIT    518.09     0  02:04      0.66    0.18    1.00
  YS02001907YS02006553 CONDUIT    800.66     0  02:16      0.89    0.94    1.00
  YS02001910YS02001907 CONDUIT   1101.07     0  02:00      1.40    0.62    1.00
  YS02001915YS02001910 CONDUIT   1101.56     0  02:00      1.40    0.55    1.00
  YS02001918YS02001915 CONDUIT    471.97     0  01:59      0.60    0.26    1.00
  YS02001920YS02001918 CONDUIT    465.24     0  01:59      0.64    0.45    1.00
  YS02001923YS02001920 CONDUIT    468.25     0  01:59      0.70    0.21    1.00
  YS02001926YS02001923 CONDUIT    444.61     0  01:59      0.97    0.63    1.00
  YS02001929YS02001926 CONDUIT    407.62     0  02:00      1.16    0.19    1.00
  YS02006553YS02006556 CONDUIT    800.33     0  02:16      1.02    0.68    1.00
  YS02006556YS02006558 CONDUIT    801.38     0  02:16      1.02    0.63    1.00
  YS02006558YS02006561 CONDUIT   1176.63     0  01:59      4.16    2.60    1.00
  YS02006561YS02001783 CONDUIT   1160.68     0  02:01      2.31    0.60    1.00
  YS02163301YS02001633 CONDUIT    935.60     0  01:58      1.19    0.88    1.00
  YS02163601YS02164001 CONDUIT   1404.69     0  01:58      1.79    1.24    1.00
  YS02164001YS02001641 CONDUIT   1402.09     0  01:58      1.79    1.91    1.00
  YSB1154YSB6556       CONDUIT    343.65     0  02:02      0.89    0.62    1.00
  YSB1171HS02004479    CONDUIT    505.78     0  01:59      1.01    0.34    1.00
  YSB1174YSB1171       CONDUIT    304.83     0  02:01      0.79    0.47    1.00
  YSB6556YSB1171       CONDUIT    344.64     0  02:02      0.90    0.35    1.00
  CC-R1                PUMP       683.00     0  00:00              1.00
  CC-R2                PUMP       683.00     0  00:00              1.00
  CC-S1                PUMP       200.00     0  00:00              1.00
  CC-S2                PUMP       200.00     0  00:00              1.00
  JK-R1                PUMP      1000.00     0  00:00              1.00
  JK-R2                PUMP      1000.00     0  00:00              1.00
  JK-S                 PUMP       300.00     0  00:00              1.00
  XR-1                 PUMP        95.00     0  00:00              1.00
  XR-2                 PUMP        95.00     0  00:00              1.00
  XR-3                 PUMP        95.00     0  00:00              1.00
  XR-4                 PUMP        95.00     0  00:00              1.00
  
  
  ***************************
  Flow Classification Summary
  ***************************
  
  -------------------------------------------------------------------------------------
                      Adjusted    ---------- Fraction of Time in Flow Class ---------- 
                       /Actual         Up    Down  Sub   Sup   Up    Down  Norm  Inlet 
  Conduit               Length    Dry  Dry   Dry   Crit  Crit  Crit  Crit  Ltd   Ctrl  
  -------------------------------------------------------------------------------------
  1                       1.00   0.00  0.00  0.00  0.00  1.00  0.00  0.00  0.34  0.00
  HS02004478WS02006287    1.00   0.13  0.00  0.00  0.57  0.30  0.00  0.00  0.60  0.00
  HS02004479HS02004480    1.00   0.06  0.00  0.00  0.94  0.00  0.00  0.00  0.11  0.00
  HS02004480HS02004478    1.00   0.12  0.00  0.00  0.49  0.00  0.00  0.40  0.00  0.00
  HS02004770HS02004777    1.00   0.00  0.11  0.00  0.89  0.00  0.00  0.00  0.03  0.00
  HS02004777HS02004785    1.00   0.00  0.00  0.00  1.00  0.00  0.00  0.00  0.12  0.00
  HS02004785HS02004788    1.00   0.00  0.00  0.00  1.00  0.00  0.00  0.00  0.00  0.00
  HS02004788HS02004792    1.00   0.00  0.00  0.00  0.99  0.01  0.00  0.00  0.91  0.00
  HS02004792HS02004799    1.00   0.00  0.00  0.00  0.99  0.01  0.00  0.00  0.88  0.00
  HS02004799HS02004480    1.00   0.00  0.06  0.00  0.87  0.00  0.07  0.00  0.00  0.00
  HS02004802HS02004478    1.00   0.11  0.00  0.00  0.88  0.00  0.00  0.00  0.03  0.00
  HS02004807HS02004802    1.00   0.11  0.00  0.00  0.88  0.00  0.00  0.01  0.00  0.00
  HS02004817HS02004807    1.00   0.00  0.11  0.00  0.89  0.00  0.00  0.00  0.01  0.00
  HS02004817HS02004824    1.00   0.00  0.00  0.00  1.00  0.00  0.00  0.00  0.83  0.00
  HS02004824HS02004830    1.00   0.00  0.00  0.00  1.00  0.00  0.00  0.00  0.01  0.00
  HS02004830HS02004837    1.00   0.00  0.00  0.00  1.00  0.00  0.00  0.00  0.90  0.00
  HS02004837HS02004842    1.00   0.00  0.00  0.00  1.00  0.00  0.00  0.00  0.11  0.00
  HS02004842HS02004848    1.00   0.00  0.11  0.00  0.89  0.00  0.00  0.00  0.57  0.00
  HS02004848HS02004852    1.00   0.11  0.00  0.00  0.89  0.00  0.00  0.00  0.71  0.00
  HS02004852HS02004856    1.00   0.11  0.01  0.00  0.88  0.00  0.00  0.00  0.68  0.00
  HS02004856HS02004862    1.00   0.00  0.13  0.00  0.87  0.00  0.00  0.00  0.75  0.00
  HS02004862HS02004870    1.00   0.00  0.00  0.00  1.00  0.00  0.00  0.00  0.03  0.00
  HS02004870HS02004876    1.00   0.00  0.00  0.00  0.97  0.03  0.00  0.00  0.87  0.00
  HS02004876HS02004881    1.00   0.02  0.00  0.00  0.75  0.23  0.00  0.00  0.00  0.00
  HS02004881HS02006253    1.00   0.02  0.05  0.00  0.40  0.02  0.00  0.50  0.17  0.00
  HS02004901HS02004770    1.00   0.11  0.00  0.00  0.89  0.00  0.00  0.00  0.00  0.00
  WS02001211WS02001212    1.00   0.00  0.03  0.00  0.97  0.00  0.00  0.00  0.00  0.00
  WS02001212WS02001213    1.00   0.04  0.01  0.00  0.47  0.00  0.49  0.00  0.00  0.00
  WS02001213WS02003059    1.00   0.00  0.00  0.00  0.99  0.00  0.00  0.00  0.00  0.00
  WS02003059WS02003060    1.00   0.00  0.00  0.00  1.00  0.00  0.00  0.00  0.03  0.00
  WS02003060WS02003069    1.00   0.00  0.00  0.00  0.99  0.01  0.00  0.00  0.50  0.00
  WS02003066WSF200        1.00   0.07  0.00  0.00  0.00  0.93  0.00  0.00  0.71  0.00
  WS02003067WS02003066    1.00   0.07  0.00  0.00  0.93  0.00  0.00  0.00  0.00  0.00
  WS02003069WS02003072    1.00   0.00  0.00  0.00  1.00  0.00  0.00  0.00  0.67  0.00
  WS02003072WS02003073    1.00   0.00  0.00  0.00  0.00  0.00  0.00  1.00  0.00  0.00
  WS02004138WS02004139    1.00   0.00  0.01  0.00  0.95  0.03  0.00  0.02  0.98  0.00
  WS02004139WS02001211    1.00   0.00  0.00  0.00  0.99  0.00  0.00  0.00  0.00  0.00
  WS02004401WS02004402    1.00   0.03  0.00  0.00  0.96  0.00  0.00  0.00  0.00  0.00
  WS02004402WS02004403    1.00   0.04  0.00  0.00  0.96  0.00  0.00  0.00  0.00  0.00
  WS02004403WS02004404    1.00   0.00  0.04  0.00  0.96  0.00  0.00  0.00  0.00  0.00
  WS02004404WS02004405    1.00   0.00  0.00  0.00  1.00  0.00  0.00  0.00  0.01  0.00
  WS02004405WS02004406    1.00   0.00  0.00  0.00  1.00  0.00  0.00  0.00  0.00  0.00
  WS02004406WS02004407    1.00   0.00  0.06  0.00  0.94  0.00  0.00  0.00  0.00  0.00
  WS02004407WS02004409    1.00   0.06  0.00  0.00  0.93  0.01  0.00  0.00  0.85  0.00
  WS02004409WS02004410    1.00   0.06  0.00  0.00  0.94  0.00  0.00  0.00  0.00  0.00
  WS02004410WS02004411    1.00   0.06  0.00  0.00  0.94  0.00  0.00  0.00  0.00  0.00
  WS02004411WS02004412    1.00   0.06  0.00  0.00  0.94  0.00  0.00  0.00  0.00  0.00
  WS02004412WS02004413    1.00   0.06  0.00  0.00  0.94  0.00  0.00  0.00  0.00  0.00
  WS02004413WS02003067    1.00   0.06  0.01  0.00  0.00  0.00  0.93  0.00  0.00  0.00
  WS02006109WS02006110    1.00   0.00  0.01  0.00  0.98  0.00  0.01  0.00  0.00  0.00
  WS02006110WS02006113    1.00   0.01  0.01  0.00  0.98  0.00  0.00  0.00  0.00  0.00
  WS02006111WS02006112    1.00   0.02  0.00  0.00  0.97  0.01  0.00  0.01  0.78  0.00
  WS02006112WS02006115    1.00   0.02  0.01  0.00  0.96  0.00  0.01  0.00  0.00  0.00
  WS02006113WS02006111    1.00   0.02  0.00  0.00  0.25  0.73  0.00  0.00  0.09  0.00
  WS02006115WS02006116    1.00   0.03  0.00  0.00  0.95  0.00  0.00  0.02  0.00  0.00
  WS02006116WS02004401    1.00   0.03  0.00  0.00  0.97  0.00  0.00  0.00  0.00  0.00
  WS02006228WS02006109    1.00   0.00  0.00  0.00  1.00  0.00  0.00  0.00  0.00  0.00
  WS02006229WS02006228    1.00   0.00  0.00  0.00  0.99  0.00  0.00  0.01  0.00  0.00
  WS02006230WS02006229    1.00   0.00  0.00  0.00  0.99  0.00  0.00  0.01  0.04  0.00
  WS02006231WS02006230    1.00   0.00  0.00  0.00  0.49  0.00  0.51  0.00  0.00  0.00
  WS02006232WS02006231    1.00   0.00  0.00  0.00  0.99  0.00  0.00  0.00  0.00  0.00
  WS02006234WS02006232    1.00   0.00  0.00  0.00  1.00  0.00  0.00  0.00  0.03  0.00
  WS02006235WS02006234    1.00   0.00  0.00  0.00  0.94  0.00  0.06  0.00  0.00  0.00
  WS02006238WS02006235    1.00   0.00  0.00  0.00  1.00  0.00  0.00  0.00  0.01  0.00
  WS02006239WS02006238    1.00   0.00  0.00  0.00  1.00  0.00  0.00  0.00  0.08  0.00
  WS02006240WS02006239    1.00   0.00  0.00  0.00  0.78  0.00  0.00  0.22  0.05  0.00
  WS02006242WS02006240    1.00   0.00  0.00  0.00  1.00  0.00  0.00  0.00  0.00  0.00
  WS02006243WS02006242    1.00   0.00  0.00  0.00  0.99  0.00  0.00  0.00  0.65  0.00
  WS02006245WS02006243    1.00   0.00  0.00  0.00  0.82  0.00  0.00  0.18  0.01  0.00
  WS02006247WS02006245    1.00   0.00  0.00  0.00  0.98  0.00  0.00  0.01  0.00  0.00
  WS02006248WS02006247    1.00   0.00  0.00  0.00  1.00  0.00  0.00  0.00  0.60  0.00
  WS02006249WS02006248    1.00   0.00  0.00  0.00  0.60  0.00  0.40  0.00  0.00  0.00
  WS02006251WS02006249    1.00   0.00  0.00  0.00  1.00  0.00  0.00  0.00  0.59  0.00
  WS02006252WS02006251    1.00   0.00  0.39  0.00  0.29  0.00  0.32  0.00  0.00  0.00
  WS02006253WS02006251    1.00   0.00  0.00  0.00  0.99  0.00  0.01  0.00  0.01  0.00
  WS02006256WS02006235    1.00   0.00  0.00  0.00  0.98  0.02  0.00  0.00  0.01  0.00
  WS02006280WS02006229    1.00   0.12  0.00  0.00  0.19  0.06  0.00  0.63  0.01  0.00
  WS02006284WS02006280    1.00   0.12  0.00  0.00  0.13  0.02  0.00  0.72  0.00  0.00
  WS02006287WS02006284    1.00   0.10  0.03  0.00  0.43  0.44  0.00  0.00  0.66  0.00
  WSF200WS02003060        1.00   0.00  0.07  0.00  0.51  0.41  0.00  0.00  0.66  0.00
  YS02001580YS02001583    1.00   0.25  0.49  0.00  0.26  0.00  0.00  0.00  0.68  0.00
  YS02001583YS02001586    1.00   0.29  0.32  0.00  0.38  0.00  0.00  0.00  0.68  0.00
  YS02001586YS02001590    1.00   0.11  0.00  0.00  0.61  0.03  0.00  0.26  0.37  0.00
  YS02001590YS02001593    1.00   0.11  0.00  0.00  0.15  0.00  0.73  0.00  0.00  0.00
  YS02001593YS02001596    1.00   0.12  0.00  0.00  0.18  0.01  0.00  0.69  0.02  0.00
  YS02001596YS02001600    1.00   0.12  0.00  0.00  0.29  0.02  0.00  0.57  0.05  0.00
  YS02001600YS02001601    1.00   0.11  0.00  0.00  0.88  0.00  0.00  0.00  0.62  0.00
  YS02001601YS02001602    1.00   0.11  0.00  0.00  0.88  0.00  0.00  0.00  0.00  0.00
  YS02001602YS02001605    1.00   0.12  0.00  0.00  0.88  0.00  0.00  0.00  0.00  0.00
  YS02001605YS02001607    1.00   0.12  0.00  0.00  0.88  0.00  0.00  0.00  0.00  0.00
  YS02001607YS02001610    1.00   0.12  0.00  0.00  0.88  0.00  0.00  0.00  0.02  0.00
  YS02001610YS02001613    1.00   0.11  0.00  0.00  0.89  0.00  0.00  0.00  0.01  0.00
  YS02001613YS02001616    1.00   0.11  0.00  0.00  0.89  0.00  0.00  0.00  0.01  0.00
  YS02001616YS02001619    1.00   0.11  0.00  0.00  0.89  0.00  0.00  0.00  0.00  0.00
  YS02001619YS02001622    1.00   0.11  0.00  0.00  0.89  0.00  0.00  0.00  0.29  0.00
  YS02001622YS02001625    1.00   0.11  0.00  0.00  0.89  0.00  0.00  0.00  0.05  0.00
  YS02001625YS02001629    1.00   0.11  0.03  0.00  0.21  0.00  0.64  0.00  0.00  0.00
  YS02001629YS02163301    1.00   0.13  0.00  0.00  0.87  0.00  0.00  0.00  0.00  0.00
  YS02001633YS02163601    1.00   0.00  0.01  0.00  0.99  0.00  0.00  0.00  0.15  0.00
  YS02001641YS02001644    1.00   0.00  0.00  0.00  1.00  0.00  0.00  0.00  0.00  0.00
  YS02001644YS02001647    1.00   0.00  0.14  0.00  0.86  0.00  0.00  0.00  0.00  0.00
  YS02001647YS02001649    1.00   0.00  0.14  0.00  0.46  0.40  0.00  0.00  0.57  0.00
  YS02001649YS02001757    1.00   0.00  0.00  0.00  0.57  0.43  0.00  0.00  0.51  0.00
  YS02001652YS02001649    1.00   0.00  0.00  0.00  0.97  0.03  0.00  0.00  0.76  0.00
  YS02001655YS02001652    1.00   0.00  0.00  0.00  0.24  0.02  0.00  0.73  0.06  0.00
  YS02001658YS02001655    1.00   0.00  0.12  0.00  0.52  0.36  0.00  0.00  0.71  0.00
  YS02001661YS02001658    1.00   0.12  0.00  0.00  0.35  0.53  0.00  0.00  0.71  0.00
  YS02001664YS02001661    1.00   0.11  0.00  0.00  0.70  0.19  0.00  0.00  0.86  0.00
  YS02001745YS02001748    1.00   0.00  0.00  0.00  0.09  0.02  0.00  0.89  0.05  0.00
  YS02001748YS02001751    1.00   0.00  0.00  0.00  0.70  0.30  0.00  0.00  0.79  0.00
  YS02001751YS02001754    1.00   0.00  0.00  0.00  0.18  0.01  0.00  0.81  0.02  0.00
  YS02001754YS02001757    1.00   0.00  0.00  0.00  1.00  0.00  0.00  0.00  0.86  0.00
  YS02001757CaochengTiaoxuchi    1.00   0.00  0.00  0.00  0.94  0.06  0.00  0.00  0.85  0.00
  YS02001759YS02001757    1.00   0.00  0.00  0.00  1.00  0.00  0.00  0.00  0.61  0.00
  YS02001762YS02001759    1.00   0.00  0.00  0.00  1.00  0.00  0.00  0.00  0.04  0.00
  YS02001765YS02001762    1.00   0.00  0.00  0.00  1.00  0.00  0.00  0.00  0.75  0.00
  YS02001767YS02001765    1.00   0.00  0.00  0.00  1.00  0.00  0.00  0.00  0.00  0.00
  YS02001770YS02001767    1.00   0.00  0.00  0.00  1.00  0.00  0.00  0.00  0.00  0.00
  YS02001774YS02001770    1.00   0.00  0.11  0.00  0.78  0.00  0.10  0.00  0.03  0.00
  YS02001779YS02001774    1.00   0.00  0.00  0.00  1.00  0.00  0.00  0.00  0.80  0.00
  YS02001783YS02001784    1.00   0.00  0.15  0.00  0.85  0.00  0.00  0.00  0.56  0.00
  YS02001784YS02001785    1.00   0.00  0.00  0.00  1.00  0.00  0.00  0.00  0.17  0.00
  YS02001786YS02001788    1.00   0.00  0.00  0.00  0.64  0.36  0.00  0.00  0.00  0.00
  YS02001788YS02001790    1.00   0.00  0.00  0.00  0.18  0.82  0.00  0.00  0.81  0.00
  YS02001790YS02001791    1.00   0.00  0.00  0.00  0.01  0.99  0.00  0.00  0.16  0.00
  YS02001791YS02001793    1.00   0.00  0.00  0.00  0.00  1.00  0.00  0.00  0.01  0.00
  YS02001793JiankangQianchi    1.00   0.00  0.00  0.00  0.97  0.03  0.00  0.00  0.97  0.00
  YS02001882YS02001884    1.00   0.13  0.00  0.00  0.87  0.00  0.00  0.00  0.00  0.00
  YS02001884YS02001887    1.00   0.08  0.03  0.00  0.89  0.00  0.00  0.00  0.00  0.00
  YS02001887YS02001890    1.00   0.00  0.00  0.00  0.95  0.00  0.05  0.00  0.00  0.00
  YS02001890YS02001895    1.00   0.00  0.13  0.00  0.87  0.00  0.00  0.00  0.00  0.00
  YS02001895YS02001898    1.00   0.13  0.00  0.00  0.85  0.00  0.02  0.00  0.00  0.00
  YS02001898YS02001901    1.00   0.13  0.00  0.00  0.87  0.00  0.00  0.00  0.01  0.00
  YS02001901YS02001904    1.00   0.13  0.00  0.00  0.87  0.00  0.00  0.00  0.00  0.00
  YS02001904YS02001907    1.00   0.00  0.13  0.00  0.87  0.00  0.00  0.00  0.00  0.00
  YS02001907YS02006553    1.00   0.00  0.03  0.00  0.97  0.00  0.00  0.00  0.00  0.00
  YS02001910YS02001907    1.00   0.00  0.00  0.00  0.95  0.01  0.00  0.04  0.12  0.00
  YS02001915YS02001910    1.00   0.00  0.00  0.00  0.96  0.04  0.00  0.00  0.16  0.00
  YS02001918YS02001915    1.00   0.00  0.00  0.00  0.96  0.03  0.00  0.00  0.76  0.00
  YS02001920YS02001918    1.00   0.00  0.00  0.00  1.00  0.00  0.00  0.00  0.00  0.00
  YS02001923YS02001920    1.00   0.00  0.00  0.00  1.00  0.00  0.00  0.00  0.94  0.00
  YS02001926YS02001923    1.00   0.00  0.09  0.00  0.07  0.00  0.85  0.00  0.00  0.00
  YS02001929YS02001926    1.00   0.00  0.11  0.00  0.89  0.00  0.00  0.00  0.83  0.00
  YS02006553YS02006556    1.00   0.01  0.00  0.00  0.99  0.00  0.00  0.00  0.03  0.00
  YS02006556YS02006558    1.00   0.00  0.00  0.00  1.00  0.00  0.00  0.00  0.00  0.00
  YS02006558YS02006561    1.00   0.15  0.00  0.00  0.06  0.79  0.00  0.00  0.19  0.00
  YS02006561YS02001783    1.00   0.15  0.00  0.00  0.10  0.75  0.00  0.00  0.70  0.00
  YS02163301YS02001633    1.00   0.00  0.13  0.00  0.87  0.00  0.00  0.00  0.00  0.00
  YS02163601YS02164001    1.00   0.00  0.09  0.00  0.91  0.00  0.00  0.00  0.00  0.00
  YS02164001YS02001641    1.00   0.01  0.09  0.00  0.91  0.00  0.00  0.00  0.06  0.00
  YSB1154YSB6556          1.00   0.11  0.00  0.00  0.89  0.00  0.00  0.00  0.02  0.00
  YSB1171HS02004479       1.00   0.06  0.00  0.00  0.93  0.00  0.00  0.01  0.10  0.00
  YSB1174YSB1171          1.00   0.07  0.03  0.00  0.90  0.00  0.00  0.00  0.00  0.00
  YSB6556YSB1171          1.00   0.06  0.05  0.00  0.89  0.00  0.00  0.00  0.00  0.00
  
  
  *************************
  Conduit Surcharge Summary
  *************************
  
  ----------------------------------------------------------------------------
                                                           Hours        Hours 
                         --------- Hours Full --------   Above Full   Capacity
  Conduit                Both Ends  Upstream  Dnstream   Normal Flow   Limited
  ----------------------------------------------------------------------------
  HS02004478WS02006287        0.39      0.39      0.55      0.01         0.01
  HS02004479HS02004480        0.55      0.55      0.57      0.01         0.01
  HS02004480HS02004478        0.49      0.55      0.49      1.58         0.49
  HS02004770HS02004777        0.46      0.46      0.47      0.09         0.06
  HS02004777HS02004785        0.42      0.42      0.47      0.01         0.01
  HS02004785HS02004788        0.40      0.42      0.40      1.33         0.39
  HS02004788HS02004792        0.40      0.40      0.52      0.01         0.01
  HS02004792HS02004799        0.52      0.52      0.63      0.01         0.01
  HS02004799HS02004480        0.55      0.55      0.63      0.72         0.01
  HS02004802HS02004478        0.50      0.50      0.56      0.01         0.01
  HS02004807HS02004802        0.54      0.54      0.55      0.17         0.17
  HS02004817HS02004807        0.54      0.54      1.10      0.01         0.01
  HS02004817HS02004824        0.41      0.41      1.10      0.01         0.01
  HS02004824HS02004830        0.39      0.39      0.41      0.01         0.01
  HS02004830HS02004837        0.35      0.35      0.39      0.01         0.01
  HS02004837HS02004842        0.35      0.35      0.47      0.01         0.01
  HS02004842HS02004848        0.32      0.32      0.47      0.01         0.01
  HS02004848HS02004852        0.32      0.32      0.34      0.02         0.01
  HS02004852HS02004856        0.34      0.34      0.36      0.02         0.01
  HS02004856HS02004862        0.32      0.32      0.36      0.01         0.01
  HS02004862HS02004870        0.36      0.36      0.37      0.04         0.05
  HS02004870HS02004876        0.37      0.37      0.45      0.01         0.01
  HS02004876HS02004881        0.43      0.45      0.43      1.37         0.43
  HS02004881HS02006253        0.43      0.43      1.54      0.01         0.01
  HS02004901HS02004770        0.46      0.46      0.47      0.01         0.01
  WS02003072WS02003073        0.01      0.01      0.01      2.24         0.01
  WS02004401WS02004402        1.44      1.44      1.46      1.26         1.27
  WS02004402WS02004403        1.46      1.46      1.47      1.44         1.43
  WS02004403WS02004404        1.47      1.47      1.61      0.01         0.01
  WS02004404WS02004405        1.60      1.61      1.60      3.11         1.60
  WS02004405WS02004406        1.57      1.60      1.57      1.75         1.57
  WS02004406WS02004407        0.01      0.01      1.57      0.01         0.01
  WS02004407WS02004409        0.01      0.01      0.85      0.01         0.01
  WS02004409WS02004410        0.83      0.85      0.83      1.34         0.83
  WS02004410WS02004411        0.76      0.83      0.76      1.41         0.76
  WS02004411WS02004412        0.66      0.76      0.66      1.44         0.66
  WS02004412WS02004413        0.66      0.66      1.17      0.01         0.01
  WS02004413WS02003067        0.01      0.01      1.17      0.01         0.01
  WS02006109WS02006110        1.69      1.69      1.94      1.70         0.01
  WS02006110WS02006113        1.11      1.11      1.92      0.28         0.01
  WS02006111WS02006112        1.08      1.08      2.12      0.01         0.01
  WS02006112WS02006115        1.34      1.34      1.76      0.01         0.01
  WS02006113WS02006111        1.10      1.11      1.10      1.24         1.10
  WS02006115WS02006116        1.35      1.35      1.36      1.33         1.33
  WS02006116WS02004401        1.43      1.43      1.44      1.42         1.40
  WS02006228WS02006109        1.90      1.94      1.90      2.45         1.90
  WS02006229WS02006228        1.89      1.91      1.89      2.17         1.89
  WS02006230WS02006229        2.00      2.08      2.00      3.10         1.01
  WS02006231WS02006230        1.61      1.61      1.63      2.66         0.89
  WS02006232WS02006231        1.62      1.62      1.75      0.01         0.13
  WS02006234WS02006232        1.66      1.66      1.75      0.01         0.02
  WS02006235WS02006234        1.63      1.64      1.66      2.34         0.85
  WS02006238WS02006235        1.67      1.67      1.71      0.01         0.29
  WS02006239WS02006238        1.68      1.68      1.68      1.13         0.28
  WS02006240WS02006239        1.62      1.62      1.63      1.11         0.25
  WS02006242WS02006240        1.62      1.62      1.72      1.45         0.78
  WS02006243WS02006242        1.60      1.60      1.66      0.01         0.01
  WS02006245WS02006243        1.59      1.59      1.59      0.38         0.20
  WS02006247WS02006245        1.58      1.59      1.58      1.94         0.64
  WS02006248WS02006247        1.58      1.58      1.59      0.01         0.02
  WS02006249WS02006248        1.57      1.57      1.58      0.96         0.01
  WS02006251WS02006249        1.57      1.57      1.58      1.75         1.54
  WS02006252WS02006251        1.83      1.83      1.85      1.46         0.01
  WS02006253WS02006251        1.57      1.57      1.57      0.67         0.01
  WS02006256WS02006235        2.64      2.68      7.22      0.43         0.01
  WS02006280WS02006229        0.66      0.66      0.82      0.01         0.01
  WS02006284WS02006280        0.57      0.57      0.65      0.01         0.01
  WS02006287WS02006284        0.49      0.49      0.58      0.21         0.21
  YS02001580YS02001583        0.48      0.48      0.53      0.01         0.01
  YS02001583YS02001586        0.48      0.48      0.61      0.01         0.01
  YS02001586YS02001590        0.61      0.61      0.68      0.01         0.01
  YS02001590YS02001593        0.68      0.68      0.69      0.72         0.01
  YS02001593YS02001596        0.69      0.69      0.78      0.01         0.01
  YS02001596YS02001600        0.82      0.82      0.93      0.01         0.01
  YS02001600YS02001601        0.99      0.99      1.33      0.01         0.01
  YS02001601YS02001602        1.20      1.20      1.36      0.94         0.01
  YS02001602YS02001605        1.13      1.13      1.20      2.15         0.01
  YS02001605YS02001607        1.08      1.13      1.08      1.29         1.08
  YS02001607YS02001610        0.64      0.64      0.66      0.01         0.01
  YS02001610YS02001613        0.63      0.63      0.66      0.01         0.01
  YS02001613YS02001616        0.59      0.59      0.63      0.01         0.01
  YS02001616YS02001619        0.58      0.58      0.59      0.01         0.01
  YS02001619YS02001622        0.57      0.58      0.57      0.71         0.55
  YS02001622YS02001625        0.57      0.57      0.75      0.01         0.01
  YS02001625YS02001629        0.52      0.52      0.75      0.01         0.01
  YS02001629YS02163301        0.74      0.74      0.74      0.23         0.21
  YS02001633YS02163601        0.76      0.76      0.79      0.40         0.39
  YS02001641YS02001644        0.65      0.69      0.65      1.40         0.65
  YS02001644YS02001647        0.46      0.46      0.65      0.04         0.01
  YS02001647YS02001649        0.46      0.46      0.56      0.01         0.01
  YS02001649YS02001757        0.55      0.56      0.60      0.31         0.25
  YS02001652YS02001649        0.40      0.40      0.56      0.01         0.01
  YS02001655YS02001652        0.24      0.24      0.38      0.01         0.01
  YS02001658YS02001655        0.10      0.10      0.24      0.01         0.01
  YS02001661YS02001658        0.01      0.01      0.10      0.01         0.01
  YS02001664YS02001661        0.01      0.01      0.02      0.01         0.01
  YS02001745YS02001748        0.01      0.01      0.01      0.01         0.01
  YS02001748YS02001751        0.08      0.08      0.13      0.01         0.01
  YS02001751YS02001754        0.13      0.13      0.27      0.01         0.01
  YS02001754YS02001757        0.32      0.32      0.60      0.01         0.01
  YS02001757CaochengTiaoxuchi        0.52      0.60      1.11      0.32         0.21
  YS02001759YS02001757        0.51      0.51      0.60      0.01         0.02
  YS02001762YS02001759        0.48      0.48      0.51      0.01         0.03
  YS02001765YS02001762        0.44      0.44      0.48      0.01         0.01
  YS02001767YS02001765        0.41      0.41      0.44      0.02         0.03
  YS02001770YS02001767        0.41      0.41      0.41      0.44         0.31
  YS02001774YS02001770        0.38      0.38      0.46      0.01         0.01
  YS02001779YS02001774        0.28      0.28      0.46      0.01         0.01
  YS02001783YS02001784        0.42      0.45      0.42      0.58         0.42
  YS02001784YS02001785        0.33      0.42      0.33      0.81         0.33
  YS02001786YS02001788        0.01      0.33      0.01      0.67         0.01
  YS02001790YS02001791        0.01      0.01      0.01      0.41         0.01
  YS02001793JiankangQianchi        0.01      0.01      6.07      0.01         0.01
  YS02001882YS02001884        0.40      0.40      0.41      0.01         0.01
  YS02001884YS02001887        0.43      0.43      0.44      0.01         0.01
  YS02001887YS02001890        0.45      0.45      0.46      0.06         0.01
  YS02001890YS02001895        0.39      0.39      0.48      0.01         0.01
  YS02001895YS02001898        0.38      0.38      0.39      0.01         0.01
  YS02001898YS02001901        0.39      0.39      0.43      0.01         0.01
  YS02001901YS02001904        0.42      0.42      0.43      0.01         0.01
  YS02001904YS02001907        0.42      0.42      0.66      0.01         0.01
  YS02001907YS02006553        0.81      0.81      0.87      0.01         0.01
  YS02001910YS02001907        0.48      0.48      0.65      0.01         0.01
  YS02001915YS02001910        0.39      0.39      0.48      0.01         0.01
  YS02001918YS02001915        0.32      0.32      0.39      0.01         0.01
  YS02001920YS02001918        0.32      0.32      0.33      0.01         0.01
  YS02001923YS02001920        0.27      0.27      0.33      0.01         0.01
  YS02001926YS02001923        0.01      0.01      0.02      0.01         0.01
  YS02001929YS02001926        0.01      0.01      0.02      0.01         0.01
  YS02006553YS02006556        0.56      0.56      0.66      0.01         0.01
  YS02006556YS02006558        0.61      0.61      0.67      0.01         0.01
  YS02006558YS02006561        0.35      0.55      0.35      0.76         0.35
  YS02006561YS02001783        0.28      0.28      0.45      0.01         0.01
  YS02163301YS02001633        0.74      0.74      0.78      0.01         0.01
  YS02163601YS02164001        0.70      0.70      0.79      0.06         0.01
  YS02164001YS02001641        0.69      0.70      0.69      0.70         0.57
  YSB1154YSB6556              0.61      0.61      0.74      0.01         0.01
  YSB1171HS02004479           0.51      0.51      0.74      0.01         0.01
  YSB1174YSB1171              0.66      0.66      1.00      0.01         0.01
  YSB6556YSB1171              0.61      0.61      1.17      0.01         0.01
  
  
  ***************
  Pumping Summary
  ***************
  
  ---------------------------------------------------------------------------------------------------------
                                                  Min       Avg       Max     Total     Power    % Time Off
                        Percent   Number of      Flow      Flow      Flow    Volume     Usage    Pump Curve
  Pump                 Utilized   Start-Ups       LPS       LPS       LPS  10^6 ltr     Kw-hr    Low   High
  ---------------------------------------------------------------------------------------------------------
  CC-R1                   19.28          29      0.00    683.00    683.00     3.793     67.93    0.0   40.5
  CC-R2                   19.20          26      0.00    683.00    683.00     3.778     67.71    0.0   35.3
  CC-S1                   23.30          24      0.00    200.00    200.00     1.342      9.47    0.0    0.0
  CC-S2                   25.69          30      0.00    200.00    200.00     1.480     10.45    0.0    0.0
  JK-R1                    6.84          18      0.00   1000.00   1000.00     1.970     19.42    0.0    0.0
  JK-R2                    2.73          21      0.00   1000.00   1000.00     0.786      5.91    0.0    0.0
  JK-S                    11.33          42      0.00    300.00    300.00     0.979     16.50    0.0    0.0
  XR-1                    97.91           2      0.00     95.00     95.00     2.679      9.63    0.0    0.0
  XR-2                    93.95           2      0.00     95.00     95.00     2.570      8.79    0.0    0.0
  XR-3                     0.00           1      0.00     95.00     95.00     0.000      0.00    0.0    0.0
  XR-4                     0.00           1      0.00     95.00     95.00     0.000      0.00    0.0    0.0
  

  Analysis begun on:  Fri Feb 24 05:44:13 2023
  Analysis ended on:  Fri Feb 24 05:44:16 2023
  Total elapsed time: 00:00:03