
  OWA STORM WATER MANAGEMENT MODEL - VERSION v5.1.14 (OWA 2023-01-25)
  --------------------------------------------------------------

  WARNING 04: minimum elevation drop used for Conduit WS02004404WS02004405
  WARNING 03: negative offset ignored for Link YS02001904YS02001907
  
  *********************************************************
  NOTE: The summary statistics displayed in this report are
  based on results found at every computational time step,  
  not just on results from each reporting time step.
  *********************************************************
  
  ****************
  Analysis Options
  ****************
  Flow Units ............... LPS
  Process Models:
    Rainfall/Runoff ........ YES
    RDII ................... NO
    Snowmelt ............... NO
    Groundwater ............ NO
    Flow Routing ........... YES
    Ponding Allowed ........ NO
    Water Quality .......... NO
  Infiltration Method ...... HORTON
  Flow Routing Method ...... DYNWAVE
  Surcharge Method ......... EXTRAN
  Starting Date ............ 08/28/2015 08:00:00
  Ending Date .............. 08/28/2015 16:00:00
  Antecedent Dry Days ...... 8.0
  Report Time Step ......... 00:01:00
  Wet Time Step ............ 00:01:00
  Dry Time Step ............ 00:01:00
  Routing Time Step ........ 30.00 sec
  Variable Time Step ....... YES
  Maximum Trials ........... 8
  Number of Threads ........ 1
  Head Tolerance ........... 0.001500 m
  
  
  **************************        Volume         Depth
  Runoff Quantity Continuity     hectare-m            mm
  **************************     ---------       -------
  Total Precipitation ......         3.074        50.739
  Evaporation Loss .........         0.000         0.000
  Infiltration Loss ........         0.233         3.840
  Surface Runoff ...........         2.781        45.903
  Final Storage ............         0.061         1.006
  Continuity Error (%) .....        -0.019
  
  
  **************************        Volume        Volume
  Flow Routing Continuity        hectare-m      10^6 ltr
  **************************     ---------     ---------
  Dry Weather Inflow .......         0.630         6.296
  Wet Weather Inflow .......         2.781        27.807
  Groundwater Inflow .......         0.000         0.000
  RDII Inflow ..............         0.000         0.000
  External Inflow ..........         0.105         1.045
  External Outflow .........         2.355        23.550
  Flooding Loss ............         1.152        11.525
  Evaporation Loss .........         0.000         0.000
  Exfiltration Loss ........         0.000         0.000
  Initial Stored Volume ....         0.303         3.031
  Final Stored Volume ......         0.322         3.218
  Continuity Error (%) .....        -0.297
  
  
  *************************
  Highest Continuity Errors
  *************************
  Node YS02001583 (-7.14%)
  Node YS02001884 (5.25%)
  Node WS02006256 (-2.07%)
  Node HS02004842 (1.82%)
  Node YS02001774 (1.62%)
  
  
  ***************************
  Time-Step Critical Elements
  ***************************
  Link WS02006252WS02006251 (33.21%)
  Link WS02006280WS02006229 (23.19%)
  Link WS02006238WS02006235 (18.17%)
  Link WS02004404WS02004405 (5.50%)
  Link YS02001791YS02001793 (4.84%)
  
  
  ********************************
  Highest Flow Instability Indexes
  ********************************
  Link WS02006113WS02006111 (38)
  Link WS02006111WS02006112 (22)
  Link WS02006238WS02006235 (19)
  Link WS02006252WS02006251 (19)
  Link WS02006256WS02006235 (17)
  
  
  *************************
  Routing Time Step Summary
  *************************
  Minimum Time Step           :     0.00 sec
  Average Time Step           :     1.77 sec
  Maximum Time Step           :     6.46 sec
  Percent in Steady State     :    -0.00
  Average Iterations per Step :     3.38
  Percent Not Converging      :    14.50
  
  
  ***************************
  Subcatchment Runoff Summary
  ***************************
  
  ------------------------------------------------------------------------------------------------------------------------------
                            Total      Total      Total      Total     Imperv       Perv      Total       Total     Peak  Runoff
                           Precip      Runon       Evap      Infil     Runoff     Runoff     Runoff      Runoff   Runoff   Coeff
  Subcatchment                 mm         mm         mm         mm         mm         mm         mm    10^6 ltr      LPS
  ------------------------------------------------------------------------------------------------------------------------------
  sub0                      50.74       0.00       0.00       0.98      45.93       2.57      48.51        0.04    27.84   0.956
  sub1                      50.74       0.00       0.00       1.66      43.91       3.93      47.83        0.32   185.90   0.943
  sub10                     50.74       0.00       0.00       1.17      45.40       2.89      48.29        0.53   318.74   0.952
  sub11                     50.74       0.00       0.00       1.15      45.41       2.91      48.32        0.56   355.13   0.952
  sub12                     50.74       0.00       0.00       1.88      42.96       4.72      47.69        0.42   283.49   0.940
  sub14                     50.74       0.00       0.00       1.32      44.91       3.25      48.17        0.46   282.77   0.949
  sub15                     50.74       0.00       0.00       5.12      34.54      10.10      44.65        0.77   426.40   0.880
  sub16                     50.74       0.00       0.00       5.30      33.08      11.44      44.53        0.47   287.89   0.878
  sub17                     50.74       0.00       0.00       5.17      33.58      11.07      44.65        0.38   233.88   0.880
  sub2                      50.74       0.00       0.00       7.28      31.06      11.50      42.56        0.40   186.05   0.839
  sub22                     50.74       0.00       0.00       7.75      28.14      14.07      42.21        2.67  1401.93   0.832
  sub23                     50.74       0.00       0.00       6.33      31.10      12.45      43.55        2.08  1171.95   0.858
  sub3                      50.74       0.00       0.00       7.87      31.02      10.90      41.92        0.94   401.28   0.826
  sub4                      50.74       0.00       0.00       1.84      43.74       3.74      47.49        0.99   447.94   0.936
  sub5                      50.74       0.00       0.00       1.02      45.88       2.53      48.41        0.55   321.74   0.954
  sub60                     50.74       0.00       0.00       1.76      43.44       4.33      47.77        0.63   401.98   0.941
  sub61                     50.74       0.00       0.00       2.55      40.98       6.07      47.05        0.86   555.89   0.927
  sub62                     50.74       0.00       0.00       1.17      45.39       2.89      48.28        1.32   779.80   0.951
  sub63                     50.74       0.00       0.00       4.70      35.05      10.01      45.06        1.02   614.10   0.888
  sub64                     50.74       0.00       0.00       2.38      41.92       5.23      47.15        1.13   631.10   0.929
  sub65                     50.74       0.00       0.00       2.06      42.89       4.54      47.43        1.31   705.07   0.935
  sub66                     50.74       0.00       0.00       5.79      34.95       8.93      43.88        2.05   904.64   0.865
  sub67                     50.74       0.00       0.00       1.13      45.43       2.93      48.36        0.90   603.78   0.953
  sub68                     50.74       0.00       0.00       2.12      42.45       4.99      47.44        1.31   799.94   0.935
  sub69                     50.74       0.00       0.00       1.87      43.01       5.75      48.76        1.81   941.46   0.961
  sub7                      50.74       0.00       0.00       1.30      44.93       3.27      48.20        0.16   105.10   0.950
  sub70                     50.74       0.00       0.00       6.18      33.32      11.08      44.40        1.28   509.98   0.875
  sub71                     50.74       0.00       0.00       1.20      45.35       2.86      48.21        1.26   685.84   0.950
  sub72                     50.74       0.00       0.00       1.07      45.78       2.48      48.27        0.66   329.56   0.951
  sub8                      50.74       0.00       0.00       1.31      44.92       3.26      48.17        0.31   192.55   0.949
  sub9                      50.74       0.00       0.00       1.31      44.91       3.26      48.17        0.23   143.81   0.949
  
  
  ******************
  Node Depth Summary
  ******************
  
  ---------------------------------------------------------------------------------
                                 Average  Maximum  Maximum  Time of Max    Reported
                                   Depth    Depth      HGL   Occurrence   Max Depth
  Node                 Type       Meters   Meters   Meters  days hr:min      Meters
  ---------------------------------------------------------------------------------
  HS02004478           JUNCTION     0.17     1.61    10.84     0  01:59        1.54
  HS02004479           JUNCTION     0.24     1.72    10.92     0  01:59        1.66
  HS02004480           JUNCTION     0.20     1.71    10.95     0  01:59        1.63
  HS02004770           JUNCTION     0.22     1.42    11.25     0  01:57        1.42
  HS02004777           JUNCTION     0.24     1.48    11.28     0  01:57        1.45
  HS02004785           JUNCTION     0.14     1.49    11.39     0  01:57        1.33
  HS02004788           JUNCTION     0.11     1.42    11.32     0  01:57        1.32
  HS02004792           JUNCTION     0.15     1.60    11.12     0  01:57        1.60
  HS02004799           JUNCTION     0.26     1.76    10.97     0  01:59        1.76
  HS02004802           JUNCTION     0.27     1.82    10.95     0  01:59        1.71
  HS02004807           JUNCTION     0.23     1.92    11.09     0  01:59        1.76
  HS02004817           JUNCTION     0.54     2.44    11.28     0  01:59        2.13
  HS02004824           JUNCTION     0.11     2.01    11.41     0  01:59        1.63
  HS02004830           JUNCTION     0.12     2.02    11.49     0  01:59        1.56
  HS02004837           JUNCTION     0.10     1.97    11.55     0  01:59        1.46
  HS02004842           JUNCTION     0.39     2.22    11.49     0  01:59        1.78
  HS02004848           JUNCTION     0.08     2.04    11.64     0  01:59        1.45
  HS02004852           JUNCTION     0.08     2.06    11.57     0  01:59        1.50
  HS02004856           JUNCTION     0.14     2.07    11.50     0  01:59        1.55
  HS02004862           JUNCTION     0.09     2.00    11.38     0  01:59        1.53
  HS02004870           JUNCTION     0.09     2.06    11.35     0  01:59        1.53
  HS02004876           JUNCTION     0.13     2.26    11.29     0  01:59        1.64
  HS02004881           JUNCTION     0.08     2.04    11.07     0  01:59        1.45
  HS02004901           JUNCTION     0.22     1.42    11.24     0  01:57        1.42
  WS02001211           JUNCTION     0.63     0.81     5.64     0  02:06        0.81
  WS02001212           JUNCTION     0.37     0.57     5.63     0  02:06        0.57
  WS02001213           JUNCTION     0.60     0.86     5.62     0  02:05        0.86
  WS02003059           JUNCTION     0.67     0.93     5.62     0  02:06        0.93
  WS02003060           JUNCTION     0.39     0.68     5.61     0  02:05        0.68
  WS02003066           JUNCTION     0.24     0.45     6.00     0  02:02        0.45
  WS02003067           JUNCTION     0.58     0.88     6.20     0  02:01        0.88
  WS02003069           JUNCTION     0.44     0.77     5.35     0  02:05        0.77
  WS02003072           JUNCTION     0.50     0.81     5.18     0  02:06        0.81
  WS02003073           JUNCTION     0.30     0.51     4.58     0  02:06        0.51
  WS02004138           JUNCTION     0.13     0.14     7.39     0  00:32        0.14
  WS02004139           JUNCTION     0.57     0.74     5.65     0  02:05        0.74
  WS02004401           JUNCTION     0.78     1.81     7.81     0  02:01        1.80
  WS02004402           JUNCTION     0.80     2.24     8.20     0  02:26        2.24
  WS02004403           JUNCTION     0.81     2.08     8.01     0  02:26        2.08
  WS02004404           JUNCTION     0.87     1.69     7.54     0  02:02        1.69
  WS02004405           JUNCTION     0.86     1.64     7.49     0  02:02        1.64
  WS02004406           JUNCTION     0.86     1.94     7.77     0  02:26        1.94
  WS02004407           JUNCTION     0.27     0.89     7.20     0  02:02        0.89
  WS02004409           JUNCTION     0.56     1.36     7.13     0  02:02        1.35
  WS02004410           JUNCTION     0.57     1.28     7.00     0  02:02        1.27
  WS02004411           JUNCTION     0.57     1.19     6.87     0  02:02        1.18
  WS02004412           JUNCTION     0.58     1.09     6.73     0  02:02        1.09
  WS02004413           JUNCTION     0.72     1.14     6.61     0  02:02        1.14
  WS02006109           JUNCTION     0.96     2.64     9.26     0  01:57        2.64
  WS02006110           JUNCTION     0.91     2.64     9.22     0  02:26        2.64
  WS02006111           JUNCTION     0.38     1.69     8.40     0  02:02        1.67
  WS02006112           JUNCTION     0.99     2.31     8.19     0  02:02        2.31
  WS02006113           JUNCTION     0.48     2.29     9.18     0  02:26        2.29
  WS02006115           JUNCTION     0.70     1.89     8.03     0  02:02        1.89
  WS02006116           JUNCTION     0.77     1.89     7.93     0  02:02        1.88
  WS02006228           JUNCTION     1.01     3.03     9.68     0  01:59        3.02
  WS02006229           JUNCTION     1.01     3.25     9.94     0  01:59        3.20
  WS02006230           JUNCTION     0.97     2.65     9.39     0  01:54        2.65
  WS02006231           JUNCTION     0.70     2.24     9.36     0  02:26        2.24
  WS02006232           JUNCTION     0.81     2.18     9.22     0  01:54        2.18
  WS02006234           JUNCTION     0.71     1.96     9.12     0  01:52        1.96
  WS02006235           JUNCTION     0.74     2.00     9.16     0  02:26        2.00
  WS02006238           JUNCTION     0.76     2.15     9.29     0  02:39        1.93
  WS02006239           JUNCTION     0.72     2.03     9.24     0  02:39        1.88
  WS02006240           JUNCTION     0.67     1.96     9.26     0  02:39        1.77
  WS02006242           JUNCTION     0.73     1.55     8.82     0  01:40        1.55
  WS02006243           JUNCTION     0.63     1.48     8.90     0  01:40        1.48
  WS02006245           JUNCTION     0.61     1.56     9.05     0  02:26        1.56
  WS02006247           JUNCTION     0.62     1.34     8.84     0  02:39        1.23
  WS02006248           JUNCTION     0.57     1.10     8.69     0  01:46        1.10
  WS02006249           JUNCTION     0.59     1.09     8.69     0  01:46        1.09
  WS02006251           JUNCTION     0.66     2.16     9.83     0  01:59        2.08
  WS02006252           JUNCTION     0.46     1.50     9.74     0  00:00        1.50
  WS02006253           JUNCTION     0.72     3.00    10.65     0  01:59        2.76
  WS02006256           JUNCTION     1.04     2.35     9.28     0  00:00        2.35
  WS02006280           JUNCTION     0.22     1.78    10.05     0  01:59        1.72
  WS02006284           JUNCTION     0.49     2.00    10.39     0  01:59        1.91
  WS02006287           JUNCTION     0.22     1.78    10.73     0  01:59        1.69
  WSF200               JUNCTION     0.24     0.51     5.75     0  02:04        0.51
  YS02001580           JUNCTION     0.05     1.05     9.59     0  01:57        0.77
  YS02001583           JUNCTION     0.09     1.08     9.58     0  01:56        0.86
  YS02001586           JUNCTION     0.14     1.13     9.30     0  01:56        1.13
  YS02001590           JUNCTION     0.23     1.40     9.26     0  01:57        1.40
  YS02001593           JUNCTION     0.16     1.46     9.32     0  01:55        1.46
  YS02001596           JUNCTION     0.22     1.77     9.19     0  01:57        1.77
  YS02001600           JUNCTION     0.27     1.87     9.00     0  01:55        1.87
  YS02001601           JUNCTION     0.45     2.06     8.90     0  01:55        2.06
  YS02001602           JUNCTION     0.38     1.87     8.77     0  01:56        1.87
  YS02001605           JUNCTION     0.35     1.78     8.68     0  02:19        1.78
  YS02001607           JUNCTION     0.36     1.66     8.51     0  02:22        1.66
  YS02001610           JUNCTION     0.40     1.68     8.48     0  01:56        1.68
  YS02001613           JUNCTION     0.36     1.68     8.52     0  02:22        1.68
  YS02001616           JUNCTION     0.29     1.61     8.52     0  02:19        1.61
  YS02001619           JUNCTION     0.27     1.61     8.54     0  02:22        1.61
  YS02001622           JUNCTION     0.26     1.61     8.51     0  02:22        1.61
  YS02001625           JUNCTION     0.52     1.78     8.38     0  01:56        1.78
  YS02001629           JUNCTION     0.36     1.85     8.40     0  01:56        1.85
  YS02001633           JUNCTION     0.44     2.06     8.52     0  02:19        1.97
  YS02001641           JUNCTION     0.43     2.10     8.54     0  02:26        2.10
  YS02001644           JUNCTION     0.43     1.92     8.35     0  02:00        1.92
  YS02001647           JUNCTION     0.22     1.75     8.36     0  02:01        1.72
  YS02001649           JUNCTION     0.26     1.96     8.35     0  02:01        1.92
  YS02001652           JUNCTION     0.16     1.85     8.44     0  02:01        1.76
  YS02001655           JUNCTION     0.12     1.73     8.58     0  02:01        1.55
  YS02001658           JUNCTION     0.08     1.79     8.93     0  02:01        1.30
  YS02001661           JUNCTION     0.12     1.39     8.80     0  02:02        1.07
  YS02001664           JUNCTION     0.04     0.57     8.50     0  02:01        0.49
  YS02001745           JUNCTION     0.05     0.79     8.31     0  02:01        0.69
  YS02001748           JUNCTION     0.08     1.72     8.79     0  02:01        1.13
  YS02001751           JUNCTION     0.10     1.70     8.58     0  02:01        1.32
  YS02001754           JUNCTION     0.14     1.78     8.39     0  02:01        1.59
  YS02001757           JUNCTION     0.29     2.02     8.28     0  02:01        1.92
  YS02001759           JUNCTION     0.23     1.98     8.35     0  02:01        1.91
  YS02001762           JUNCTION     0.22     1.98     8.38     0  02:01        1.90
  YS02001765           JUNCTION     0.20     1.96     8.41     0  02:01        1.87
  YS02001767           JUNCTION     0.20     1.93     8.41     0  02:01        1.86
  YS02001770           JUNCTION     0.21     1.95     8.45     0  02:01        1.89
  YS02001774           JUNCTION     0.28     2.00     8.42     0  02:01        1.96
  YS02001779           JUNCTION     0.12     1.68     8.37     0  01:59        1.68
  YS02001783           JUNCTION     0.19     1.29     7.43     0  01:59        1.22
  YS02001784           JUNCTION     0.21     1.17     7.24     0  01:59        1.11
  YS02001786           JUNCTION     0.18     0.91     6.94     0  01:59        0.87
  YS02001788           JUNCTION     0.12     0.62     6.60     0  02:00        0.62
  YS02001790           JUNCTION     0.15     0.72     6.37     0  02:00        0.72
  YS02001791           JUNCTION     0.10     0.44     5.91     0  02:06        0.43
  YS02001793           JUNCTION     0.05     0.30     5.13     0  02:00        0.29
  YS02001882           JUNCTION     0.24     1.69     8.40     0  01:59        1.63
  YS02001884           JUNCTION     0.33     1.78     8.39     0  01:59        1.72
  YS02001887           JUNCTION     0.41     1.83     8.37     0  01:59        1.82
  YS02001890           JUNCTION     0.44     1.81     8.32     0  01:59        1.81
  YS02001895           JUNCTION     0.21     1.57     8.32     0  01:59        1.57
  YS02001898           JUNCTION     0.22     1.57     8.31     0  01:59        1.56
  YS02001901           JUNCTION     0.33     1.69     8.30     0  01:59        1.67
  YS02001904           JUNCTION     0.31     1.65     8.28     0  01:59        1.64
  YS02001907           JUNCTION     0.63     1.96     8.25     0  01:59        1.96
  YS02001910           JUNCTION     0.43     2.03     8.54     0  02:00        2.03
  YS02001915           JUNCTION     0.24     2.00     8.72     0  02:00        2.00
  YS02001918           JUNCTION     0.12     1.81     8.88     0  02:00        1.81
  YS02001920           JUNCTION     0.20     2.14     9.15     0  02:00        2.14
  YS02001923           JUNCTION     0.09     2.03     9.29     0  01:59        2.03
  YS02001926           JUNCTION     0.13     1.90     9.35     0  01:59        1.90
  YS02001929           JUNCTION     0.06     1.78     9.47     0  01:59        1.78
  YS02006553           JUNCTION     0.63     1.99     8.27     0  01:59        1.97
  YS02006556           JUNCTION     0.60     1.98     8.29     0  01:59        1.95
  YS02006558           JUNCTION     0.65     2.02     8.29     0  01:59        1.99
  YS02006561           JUNCTION     0.11     0.97     7.63     0  01:59        0.89
  YS02163301           JUNCTION     0.39     1.95     8.47     0  02:19        1.90
  YS02163601           JUNCTION     0.48     2.08     8.48     0  02:19        1.99
  YS02164001           JUNCTION     0.42     2.10     8.56     0  02:26        2.10
  YSB1154              JUNCTION     0.37     1.89    10.95     0  01:57        1.88
  YSB1171              JUNCTION     0.52     1.95    10.85     0  01:57        1.95
  YSB1174              JUNCTION     0.32     1.80    10.91     0  01:59        1.79
  YSB6556              JUNCTION     0.27     1.75    10.92     0  01:57        1.72
  CC-1                 OUTFALL      0.00     0.00     0.00     0  00:00        0.00
  CC-2                 OUTFALL      0.00     0.00     0.00     0  00:00        0.00
  JK-1                 OUTFALL      0.00     0.00     0.00     0  00:00        0.00
  JK-2                 OUTFALL      0.00     0.00     0.00     0  00:00        0.00
  WSC                  OUTFALL      0.30     0.51     1.18     0  02:07        0.51
  CC-storage           STORAGE      0.80     1.57     7.07     0  02:26        1.57
  JK-storage           STORAGE      1.35     4.23     5.03     0  02:10        4.16
  XR-storage           STORAGE      7.93     9.26     7.26     0  08:00        9.26
  
  
  *******************
  Node Inflow Summary
  *******************
  
  -------------------------------------------------------------------------------------------------
                                  Maximum  Maximum                  Lateral       Total        Flow
                                  Lateral    Total  Time of Max      Inflow      Inflow     Balance
                                   Inflow   Inflow   Occurrence      Volume      Volume       Error
  Node                 Type           LPS      LPS  days hr:min    10^6 ltr    10^6 ltr     Percent
  -------------------------------------------------------------------------------------------------
  HS02004478           JUNCTION      0.00  2272.09     0  02:02           0        7.63      -0.005
  HS02004479           JUNCTION      0.00   497.40     0  01:59           0       0.739       0.106
  HS02004480           JUNCTION      0.00  2136.70     0  01:58           0        5.79       0.047
  HS02004770           JUNCTION   1171.95  1171.95     0  02:02        2.08        2.31       0.138
  HS02004777           JUNCTION      0.03   764.32     0  01:56    0.000864        1.73       0.297
  HS02004785           JUNCTION      0.15   778.71     0  01:56     0.00432        1.73       0.035
  HS02004788           JUNCTION    428.07   872.06     0  01:57       0.816        2.55      -0.018
  HS02004792           JUNCTION   1402.21  2149.12     0  02:02        2.67        5.22       0.009
  HS02004799           JUNCTION    282.77  1757.86     0  01:58       0.459        5.09       0.054
  HS02004802           JUNCTION      0.00   932.39     0  02:03           0        1.86       0.213
  HS02004807           JUNCTION    355.13   931.85     0  02:03       0.562        1.91       0.219
  HS02004817           JUNCTION      0.60   586.42     0  02:03      0.0173         1.4       1.194
  HS02004824           JUNCTION    447.99   682.47     0  01:57       0.992        1.57       0.038
  HS02004830           JUNCTION      0.15   684.38     0  01:57     0.00432       0.762       0.156
  HS02004837           JUNCTION    325.09   889.58     0  01:57       0.715         1.1       0.066
  HS02004842           JUNCTION      0.00   883.12     0  01:58           0       0.725       1.856
  HS02004848           JUNCTION    401.28  1115.11     0  01:59       0.944        1.51       0.016
  HS02004852           JUNCTION      0.00  1105.93     0  01:59           0        1.36      -0.005
  HS02004856           JUNCTION    143.81  1223.59     0  01:59       0.232        1.59       0.042
  HS02004862           JUNCTION    186.25  1261.60     0  01:59       0.402        1.99      -0.010
  HS02004870           JUNCTION    192.55  1294.94     0  01:59       0.308         2.3       0.017
  HS02004876           JUNCTION    185.90  1357.78     0  01:59       0.318        2.62       0.021
  HS02004881           JUNCTION    105.10  1451.25     0  01:59       0.162        2.78       0.017
  HS02004901           JUNCTION    287.89   515.80     0  02:03       0.466       0.689       0.264
  WS02001211           JUNCTION      7.35   203.44     0  02:43       0.212        5.44       0.613
  WS02001212           JUNCTION      0.00   209.26     0  02:40           0        5.41       0.288
  WS02001213           JUNCTION      0.00   213.08     0  02:39           0        5.39       0.335
  WS02003059           JUNCTION      0.00   217.63     0  02:39           0        5.38       0.597
  WS02003060           JUNCTION     16.53  1482.58     0  02:05       0.476        15.9       0.093
  WS02003066           JUNCTION      0.00  1279.65     0  02:02           0        10.1       0.016
  WS02003067           JUNCTION      0.00  1279.52     0  02:02           0        10.1       0.044
  WS02003069           JUNCTION      0.32  1482.88     0  02:05     0.00922        15.9       0.099
  WS02003072           JUNCTION      0.00  1482.89     0  02:06           0        15.9       0.133
  WS02003073           JUNCTION      1.82  1484.86     0  02:06      0.0524        15.9       0.139
  WS02004138           JUNCTION      0.00   380.00     0  00:00           0        5.25       0.055
  WS02004139           JUNCTION      0.32   190.32     0  00:32     0.00924        5.26       0.509
  WS02004401           JUNCTION      0.00  1279.31     0  02:02           0        10.2       0.109
  WS02004402           JUNCTION      0.00  1279.30     0  02:02           0        10.2       0.109
  WS02004403           JUNCTION      0.00  1280.05     0  02:02           0        10.2       0.106
  WS02004404           JUNCTION      0.16  1280.24     0  02:02     0.00467        10.2       0.091
  WS02004405           JUNCTION      0.04  1281.28     0  02:02      0.0011        10.1       0.126
  WS02004406           JUNCTION      0.00  1280.60     0  02:02           0        10.1       0.214
  WS02004407           JUNCTION      0.00  1280.47     0  02:02           0        10.1       0.016
  WS02004409           JUNCTION      0.00  1279.44     0  02:02           0        10.1       0.035
  WS02004410           JUNCTION      0.00  1279.74     0  02:02           0        10.1       0.053
  WS02004411           JUNCTION      0.00  1279.62     0  02:02           0        10.1       0.063
  WS02004412           JUNCTION      0.00  1279.62     0  02:02           0        10.1       0.082
  WS02004413           JUNCTION      0.00  1279.63     0  02:02           0        10.1       0.145
  WS02006109           JUNCTION      1.23  1273.27     0  02:02      0.0354          10       0.102
  WS02006110           JUNCTION      0.00  1123.01     0  02:17           0        9.84       0.080
  WS02006111           JUNCTION      0.00  1122.93     0  02:16           0        9.83       0.005
  WS02006112           JUNCTION    233.88  1279.66     0  02:02       0.383        10.2       0.182
  WS02006113           JUNCTION      0.00  1122.97     0  02:17           0        9.83       0.029
  WS02006115           JUNCTION      0.00  1279.36     0  02:01           0        10.2       0.071
  WS02006116           JUNCTION      0.00  1279.59     0  02:02           0        10.2       0.052
  WS02006228           JUNCTION      0.00  1273.62     0  02:02           0        9.98       0.044
  WS02006229           JUNCTION      0.00  2272.94     0  02:02           0        11.9       0.068
  WS02006230           JUNCTION     10.28  1009.81     0  02:02       0.296         6.2       0.148
  WS02006231           JUNCTION      0.00   553.94     0  04:20           0        5.18      -0.064
  WS02006232           JUNCTION      0.00   553.07     0  04:20           0        5.19       0.118
  WS02006234           JUNCTION      0.00   549.39     0  04:20           0        5.18      -0.179
  WS02006235           JUNCTION      0.00   542.88     0  04:20           0        5.18       0.196
  WS02006238           JUNCTION      0.00   423.10     0  03:32           0        4.84      -0.165
  WS02006239           JUNCTION      0.00   424.53     0  03:41           0         4.8      -0.167
  WS02006240           JUNCTION      0.00   424.26     0  03:41           0        4.78       0.002
  WS02006242           JUNCTION      0.00   423.74     0  03:41           0        4.78      -0.007
  WS02006243           JUNCTION      0.00   423.79     0  03:41           0        4.46      -0.234
  WS02006245           JUNCTION      0.00   423.67     0  03:32           0        4.47       0.255
  WS02006247           JUNCTION      0.00   425.08     0  03:40           0        4.47      -0.009
  WS02006248           JUNCTION      0.00   428.16     0  03:40           0        4.67      -0.036
  WS02006249           JUNCTION      0.00  1343.86     0  01:59           0        7.62       0.105
  WS02006251           JUNCTION      0.08  1480.61     0  01:59     0.00222        7.73      -0.010
  WS02006252           JUNCTION      0.00   541.18     0  01:59           0        5.15      -0.259
  WS02006253           JUNCTION     27.84  1478.77     0  01:59      0.0393         2.9       0.058
  WS02006256           JUNCTION      0.00   300.00     0  00:00           0        1.02      -2.028
  WS02006280           JUNCTION      0.00  2272.70     0  02:02           0        7.61       0.022
  WS02006284           JUNCTION      0.10  2271.83     0  02:02     0.00275        7.61      -0.009
  WS02006287           JUNCTION      0.00  2272.12     0  02:02           0        7.61       0.011
  WSF200               JUNCTION      0.00  1279.67     0  02:02           0        10.1       0.007
  YS02001580           JUNCTION      0.00   123.56     0  01:57           0      0.0043      -0.921
  YS02001583           JUNCTION      0.00   183.91     0  01:56           0      0.0149      -6.666
  YS02001586           JUNCTION    509.98   509.98     0  02:05        1.28        1.29       0.109
  YS02001590           JUNCTION      0.00   320.51     0  02:19           0        1.14      -0.028
  YS02001593           JUNCTION      0.00   321.55     0  02:19           0        1.14       0.011
  YS02001596           JUNCTION      0.00   317.97     0  02:10           0        1.14       0.006
  YS02001600           JUNCTION      0.00   318.04     0  02:10           0        1.14       0.009
  YS02001601           JUNCTION    941.46  1259.06     0  02:03        1.81        2.95       0.029
  YS02001602           JUNCTION      0.00   528.95     0  01:56           0        2.05       0.022
  YS02001605           JUNCTION      0.00   528.92     0  01:56           0        1.96       0.023
  YS02001607           JUNCTION      0.00   528.43     0  01:56           0        1.96       0.110
  YS02001610           JUNCTION      0.00   530.46     0  01:56           0        1.97       0.123
  YS02001613           JUNCTION      0.00   534.39     0  01:56           0        1.67       0.103
  YS02001616           JUNCTION      0.00   537.03     0  01:56           0        1.67       0.037
  YS02001619           JUNCTION    904.64   929.57     0  01:58        2.05         3.7       0.010
  YS02001622           JUNCTION      0.00   935.99     0  01:56           0        3.68      -0.002
  YS02001625           JUNCTION      0.00  1027.65     0  02:05           0        3.72       0.252
  YS02001629           JUNCTION      0.00   941.60     0  01:56           0        3.13       0.028
  YS02001633           JUNCTION    705.27  1390.61     0  01:58        1.31        4.38       0.081
  YS02001641           JUNCTION      0.00  1385.38     0  01:58           0        4.34       0.067
  YS02001644           JUNCTION    631.14  1814.11     0  01:59        1.13        5.46       0.064
  YS02001647           JUNCTION      0.00  1814.79     0  01:58           0         5.4       0.006
  YS02001649           JUNCTION      0.00  2065.97     0  01:58           0        6.42      -0.000
  YS02001652           JUNCTION      0.00   741.55     0  02:02           0        1.03      -0.104
  YS02001655           JUNCTION      0.15   740.80     0  02:02     0.00443        1.03       0.053
  YS02001658           JUNCTION      0.00   740.23     0  02:02           0        1.02      -0.109
  YS02001661           JUNCTION      0.00   791.50     0  02:01           0        1.02       0.023
  YS02001664           JUNCTION    614.10   614.10     0  02:02        1.02        1.02      -0.009
  YS02001745           JUNCTION    401.98   436.17     0  02:01       0.628       0.628       0.249
  YS02001748           JUNCTION      0.04   602.60     0  02:01      0.0013       0.629      -0.385
  YS02001751           JUNCTION      0.01   489.40     0  02:01    0.000317       0.635       0.064
  YS02001754           JUNCTION      0.26   489.61     0  02:01     0.00749       0.647      -0.230
  YS02001757           JUNCTION      0.00  3356.25     0  02:02           0        9.27       0.047
  YS02001759           JUNCTION    555.93  1302.62     0  02:01       0.865         2.2      -0.004
  YS02001762           JUNCTION      0.00   765.97     0  02:03           0        1.33       0.006
  YS02001765           JUNCTION      0.00   765.58     0  02:03           0        1.33       0.012
  YS02001767           JUNCTION      0.54   765.92     0  02:03      0.0154        1.33       0.012
  YS02001770           JUNCTION    779.95   779.95     0  02:02        1.33        1.37      -0.006
  YS02001774           JUNCTION      0.00   394.00     0  01:59           0      0.0694       1.649
  YS02001779           JUNCTION      0.01   395.54     0  01:59    0.000144      0.0258      -1.806
  YS02001783           JUNCTION      0.00  1157.10     0  02:01           0        3.54       0.007
  YS02001784           JUNCTION      1.06  1158.33     0  02:01      0.0305        3.57       0.014
  YS02001786           JUNCTION      0.06  1158.10     0  02:01     0.00162        3.57       0.017
  YS02001788           JUNCTION      0.07  1158.98     0  02:00     0.00204        3.57       0.008
  YS02001790           JUNCTION      0.15  1172.36     0  02:00     0.00446        3.58       0.031
  YS02001791           JUNCTION      0.00  1278.79     0  02:07           0        3.58      -0.031
  YS02001793           JUNCTION      0.00  1240.50     0  02:03           0        3.58       0.007
  YS02001882           JUNCTION      0.00    51.78     0  01:57           0      0.0126       5.034
  YS02001884           JUNCTION      0.00    70.93     0  01:56           0      0.0482       5.545
  YS02001887           JUNCTION    604.23   604.23     0  02:02       0.912       0.946       0.482
  YS02001890           JUNCTION      0.00   605.61     0  02:01           0       0.905       0.570
  YS02001895           JUNCTION      0.00   514.98     0  02:04           0       0.878       0.181
  YS02001898           JUNCTION      0.00   515.02     0  02:04           0       0.877       0.023
  YS02001901           JUNCTION      0.00   515.24     0  02:04           0       0.879       0.381
  YS02001904           JUNCTION      0.00   515.31     0  02:04           0       0.883       0.328
  YS02001907           JUNCTION      0.00  1565.49     0  02:01           0        2.88       0.632
  YS02001910           JUNCTION      0.00  1069.81     0  02:01           0           2       0.359
  YS02001915           JUNCTION    685.86  1070.47     0  02:00        1.26        2.05       0.074
  YS02001918           JUNCTION      0.00   451.78     0  01:59           0        0.82       0.033
  YS02001920           JUNCTION      2.87   448.56     0  01:59      0.0827       0.801       0.100
  YS02001923           JUNCTION      0.04   447.11     0  01:59     0.00109       0.702      -0.171
  YS02001926           JUNCTION      0.05   616.39     0  01:59      0.0015       0.681      -0.159
  YS02001929           JUNCTION    329.56   537.71     0  01:59       0.664       0.667      -0.052
  YS02006553           JUNCTION      0.00   793.79     0  02:16           0        2.26       0.534
  YS02006556           JUNCTION      0.00   793.84     0  02:16           0        2.27       0.364
  YS02006558           JUNCTION    800.82  1158.40     0  02:01        1.33        3.57       0.105
  YS02006561           JUNCTION      0.00  1157.26     0  02:01           0        3.54      -0.004
  YS02163301           JUNCTION      0.00   928.93     0  01:58           0        3.12       0.052
  YS02163601           JUNCTION      0.11  1388.85     0  01:58     0.00317        4.33       0.115
  YS02164001           JUNCTION      0.00  1387.46     0  01:58           0        4.33       0.056
  YSB1154              JUNCTION    321.74   321.74     0  02:02       0.549       0.549       0.279
  YSB1171              JUNCTION      0.00   605.65     0  02:02           0       0.973       0.667
  YSB1174              JUNCTION    283.49   283.49     0  02:02       0.417       0.417       0.304
  YSB6556              JUNCTION      0.00   321.95     0  02:02           0        0.55       0.216
  CC-1                 OUTFALL       0.00   683.00     0  00:00           0        3.11       0.000
  CC-2                 OUTFALL       0.00   683.00     0  00:00           0        1.88       0.000
  JK-1                 OUTFALL       0.00  1000.00     0  00:00           0        1.64       0.000
  JK-2                 OUTFALL       0.00  1000.00     0  00:00           0        1.04       0.000
  WSC                  OUTFALL       0.00  1485.19     0  02:07           0        15.9       0.000
  CC-storage           STORAGE       0.00  3355.83     0  02:02           0        11.5      -0.261
  JK-storage           STORAGE       0.00  1272.93     0  02:05           0        3.73      -0.454
  XR-storage           STORAGE     200.00   200.00     0  00:00        5.76        6.36       0.001
  
  
  **********************
  Node Surcharge Summary
  **********************
  
  Surcharging occurs when water rises above the top of the highest conduit.
  ---------------------------------------------------------------------
                                               Max. Height   Min. Depth
                                   Hours       Above Crown    Below Rim
  Node                 Type      Surcharged         Meters       Meters
  ---------------------------------------------------------------------
  HS02004478           JUNCTION        0.38          0.694        0.246
  HS02004479           JUNCTION        0.51          0.921        0.129
  HS02004480           JUNCTION        0.54          0.996        0.104
  HS02004770           JUNCTION        0.46          0.720        0.000
  HS02004777           JUNCTION        0.46          0.780        0.000
  HS02004785           JUNCTION        0.41          0.790        0.000
  HS02004788           JUNCTION        0.40          0.720        0.000
  HS02004792           JUNCTION        0.51          0.900        0.000
  HS02004799           JUNCTION        0.63          1.060        0.000
  HS02004802           JUNCTION        0.55          1.110        0.100
  HS02004807           JUNCTION        0.54          1.220        0.000
  HS02004817           JUNCTION        1.09          1.737        0.003
  HS02004824           JUNCTION        0.41          1.310        0.000
  HS02004830           JUNCTION        0.38          1.321        0.009
  HS02004837           JUNCTION        0.34          1.270        0.070
  HS02004842           JUNCTION        0.47          1.520        0.000
  HS02004848           JUNCTION        0.31          1.341        0.029
  HS02004852           JUNCTION        0.34          1.357        0.063
  HS02004856           JUNCTION        0.32          1.300        0.000
  HS02004862           JUNCTION        0.36          1.300        0.000
  HS02004870           JUNCTION        0.37          1.364        0.036
  HS02004876           JUNCTION        0.45          1.560        0.000
  HS02004881           JUNCTION        0.43          1.336        0.114
  HS02004901           JUNCTION        0.47          0.720        0.000
  WS02004401           JUNCTION        1.53          0.807        0.853
  WS02004402           JUNCTION        1.55          1.236        0.504
  WS02004403           JUNCTION        1.55          1.080        0.950
  WS02004404           JUNCTION        1.75          0.689        2.091
  WS02004405           JUNCTION        1.70          0.644        2.156
  WS02004406           JUNCTION        1.65          0.943        1.507
  WS02004409           JUNCTION        0.85          0.364        1.996
  WS02004410           JUNCTION        0.81          0.276        2.264
  WS02004411           JUNCTION        0.74          0.191        2.339
  WS02004412           JUNCTION        0.65          0.093        2.217
  WS02004413           JUNCTION        1.17          0.138        2.062
  WS02006109           JUNCTION        2.73          1.820        0.000
  WS02006110           JUNCTION        2.01          1.729        0.121
  WS02006111           JUNCTION        1.15          0.878        0.992
  WS02006112           JUNCTION        2.19          1.305        0.375
  WS02006113           JUNCTION        1.16          1.489        0.441
  WS02006115           JUNCTION        1.39          0.882        1.368
  WS02006116           JUNCTION        1.42          0.833        1.457
  WS02006228           JUNCTION        2.69          2.200        0.000
  WS02006229           JUNCTION        0.78          1.070        0.000
  WS02006230           JUNCTION        1.81          1.570        0.000
  WS02006231           JUNCTION        2.01          1.530        0.000
  WS02006232           JUNCTION        2.81          1.480        0.000
  WS02006234           JUNCTION        2.29          1.240        0.000
  WS02006235           JUNCTION        2.41          1.290        0.000
  WS02006238           JUNCTION        2.54          1.430        0.000
  WS02006239           JUNCTION        2.41          1.290        0.000
  WS02006240           JUNCTION        2.42          1.254        0.136
  WS02006242           JUNCTION        2.83          0.820        0.000
  WS02006243           JUNCTION        2.44          0.770        0.000
  WS02006245           JUNCTION        2.42          0.850        0.000
  WS02006247           JUNCTION        2.50          0.626        0.134
  WS02006248           JUNCTION        2.37          0.380        0.000
  WS02006249           JUNCTION        2.45          0.390        0.000
  WS02006251           JUNCTION        2.03          1.131        0.049
  WS02006252           JUNCTION        3.16          1.100        0.000
  WS02006253           JUNCTION        2.05          1.964        0.516
  WS02006256           JUNCTION        7.60          2.050        0.000
  WS02006280           JUNCTION        0.64          0.734        0.046
  WS02006284           JUNCTION        0.57          0.716        0.084
  WS02006287           JUNCTION        0.48          0.779        0.111
  YS02001580           JUNCTION        0.47          0.450        0.000
  YS02001583           JUNCTION        0.48          0.440        0.060
  YS02001586           JUNCTION        0.61          0.510        0.000
  YS02001590           JUNCTION        0.68          0.750        0.000
  YS02001593           JUNCTION        0.68          0.840        0.000
  YS02001596           JUNCTION        0.78          1.037        0.033
  YS02001600           JUNCTION        0.93          1.190        0.000
  YS02001601           JUNCTION        1.31          1.440        0.000
  YS02001602           JUNCTION        1.18          1.270        0.000
  YS02001605           JUNCTION        1.12          1.180        0.000
  YS02001607           JUNCTION        0.66          0.665        0.015
  YS02001610           JUNCTION        0.68          0.680        0.000
  YS02001613           JUNCTION        0.65          0.682        0.018
  YS02001616           JUNCTION        0.61          0.610        0.000
  YS02001619           JUNCTION        0.60          0.610        0.000
  YS02001622           JUNCTION        0.59          0.607        0.013
  YS02001625           JUNCTION        0.76          0.780        0.000
  YS02001629           JUNCTION        0.55          0.470        0.000
  YS02001633           JUNCTION        0.79          1.041        0.019
  YS02001641           JUNCTION        0.73          1.100        0.000
  YS02001644           JUNCTION        0.69          0.920        0.000
  YS02001647           JUNCTION        0.50          0.748        0.152
  YS02001649           JUNCTION        0.62          0.965        0.085
  YS02001652           JUNCTION        0.43          0.818        0.312
  YS02001655           JUNCTION        0.29          0.727        0.473
  YS02001658           JUNCTION        0.11          0.786        0.514
  YS02001661           JUNCTION        0.01          0.324        1.066
  YS02001748           JUNCTION        0.02          0.635        0.555
  YS02001751           JUNCTION        0.18          0.698        0.502
  YS02001754           JUNCTION        0.33          0.731        0.419
  YS02001757           JUNCTION        0.67          1.023        0.187
  YS02001759           JUNCTION        0.58          0.981        0.229
  YS02001762           JUNCTION        0.54          0.985        0.165
  YS02001765           JUNCTION        0.50          0.959        0.141
  YS02001767           JUNCTION        0.46          0.926        0.104
  YS02001770           JUNCTION        0.43          0.920        0.000
  YS02001774           JUNCTION        0.53          1.001        0.049
  YS02001779           JUNCTION        0.33          0.680        0.000
  YS02001783           JUNCTION        0.44          0.492        1.108
  YS02001784           JUNCTION        0.42          0.369        1.121
  YS02001786           JUNCTION        0.33          0.107        1.323
  YS02001882           JUNCTION        0.39          0.687        0.143
  YS02001884           JUNCTION        0.40          0.716        0.154
  YS02001887           JUNCTION        0.44          0.783        0.167
  YS02001890           JUNCTION        0.45          0.760        0.000
  YS02001895           JUNCTION        0.38          0.573        0.177
  YS02001898           JUNCTION        0.38          0.544        0.196
  YS02001901           JUNCTION        0.42          0.687        0.183
  YS02001904           JUNCTION        0.41          0.652        0.198
  YS02001907           JUNCTION        0.65          0.950        0.000
  YS02001910           JUNCTION        0.47          1.033        0.067
  YS02001915           JUNCTION        0.39          1.000        0.000
  YS02001918           JUNCTION        0.31          0.810        0.000
  YS02001920           JUNCTION        0.32          1.140        0.000
  YS02001923           JUNCTION        0.01          0.820        0.000
  YS02001926           JUNCTION        0.01          0.900        0.000
  YS02001929           JUNCTION        0.01          0.780        0.000
  YS02006553           JUNCTION        0.66          0.989        0.201
  YS02006556           JUNCTION        0.56          0.940        0.410
  YS02006558           JUNCTION        0.55          0.923        0.477
  YS02006561           JUNCTION        0.28          0.173        0.977
  YS02163301           JUNCTION        0.77          0.950        0.080
  YS02163601           JUNCTION        0.81          1.080        0.000
  YS02164001           JUNCTION        0.73          1.100        0.000
  YSB1154              JUNCTION        0.74          1.194        0.206
  YSB1171              JUNCTION        0.74          1.100        0.000
  YSB1174              JUNCTION        0.66          1.097        0.153
  YSB6556              JUNCTION        0.60          1.052        0.048
  
  
  *********************
  Node Flooding Summary
  *********************
  
  Flooding refers to all water that overflows a node, whether it ponds or not.
  --------------------------------------------------------------------------
                                                             Total   Maximum
                                 Maximum   Time of Max       Flood    Ponded
                        Hours       Rate    Occurrence      Volume     Depth
  Node                 Flooded       LPS   days hr:min    10^6 ltr    Meters
  --------------------------------------------------------------------------
  HS02004770              0.26    646.51      0  02:02       0.350     0.000
  HS02004777              0.01     71.93      0  01:57       0.001     0.000
  HS02004785              0.01    116.37      0  01:57       0.000     0.000
  HS02004788              0.01    261.51      0  01:57       0.001     0.000
  HS02004792              0.28   1006.78      0  02:02       0.585     0.000
  HS02004799              0.11    121.99      0  02:01       0.028     0.000
  HS02004807              0.01     29.93      0  01:59       0.000     0.000
  HS02004824              0.01     12.69      0  01:59       0.000     0.000
  HS02004842              0.01    109.84      0  01:59       0.001     0.000
  HS02004856              0.01    442.65      0  01:59       0.003     0.000
  HS02004862              0.01     47.87      0  01:59       0.000     0.000
  HS02004876              0.01     92.45      0  01:59       0.000     0.000
  HS02004901              0.34    515.80      0  02:03       0.455     0.000
  WS02006109              0.33    227.95      0  02:02       0.162     0.000
  WS02006228              0.01      6.67      0  01:59       0.000     0.000
  WS02006229              0.01      7.95      0  01:59       0.000     0.000
  WS02006230              0.58    557.15      0  02:02       0.749     0.000
  WS02006231              0.01      0.39      0  02:26       0.000     0.000
  WS02006232              0.14      9.32      0  02:26       0.000     0.000
  WS02006234              0.63    128.47      0  01:59       0.202     0.000
  WS02006235              0.01     55.30      0  02:39       0.000     0.000
  WS02006238              0.01     20.63      0  02:39       0.000     0.000
  WS02006239              0.01     11.70      0  02:39       0.000     0.000
  WS02006242              0.73    174.83      0  01:40       0.311     0.000
  WS02006243              0.01    143.87      0  01:40       0.000     0.000
  WS02006245              0.01      0.23      0  02:26       0.000     0.000
  WS02006248              1.06    339.18      0  02:22       1.014     0.000
  WS02006249              1.82   1283.67      0  01:59       3.750     0.000
  WS02006252              0.38    540.45      0  01:59       0.339     0.000
  WS02006256              0.94    294.31      0  02:10       0.539     0.000
  YS02001580              0.01    102.03      0  01:57       0.000     0.000
  YS02001586              0.36    192.52      0  02:05       0.137     0.000
  YS02001590              0.01     15.19      0  01:57       0.000     0.000
  YS02001593              0.01     22.74      0  01:55       0.000     0.000
  YS02001600              0.01      4.68      0  01:57       0.000     0.000
  YS02001601              0.54    861.23      0  02:03       0.901     0.000
  YS02001602              0.45     61.95      0  02:18       0.087     0.000
  YS02001605              0.01      0.20      0  02:19       0.000     0.000
  YS02001610              0.37    401.16      0  02:05       0.317     0.000
  YS02001616              0.01      2.54      0  02:19       0.000     0.000
  YS02001619              0.01      1.92      0  02:22       0.000     0.000
  YS02001625              0.36   1027.39      0  02:05       0.632     0.000
  YS02001629              0.06    163.80      0  01:56       0.016     0.000
  YS02001641              0.01      1.50      0  02:26       0.000     0.000
  YS02001644              0.08    394.63      0  02:02       0.058     0.000
  YS02001770              0.01      7.94      0  02:01       0.000     0.000
  YS02001779              0.04    329.77      0  01:59       0.008     0.000
  YS02001890              0.09    107.71      0  02:01       0.022     0.000
  YS02001907              0.26   1183.26      0  02:01       0.614     0.000
  YS02001915              0.01     12.42      0  02:00       0.000     0.000
  YS02001918              0.01    262.45      0  02:00       0.003     0.000
  YS02001920              0.01     89.38      0  02:00       0.000     0.000
  YS02001923              0.01    271.62      0  01:59       0.001     0.000
  YS02001926              0.01    135.49      0  02:00       0.001     0.000
  YS02001929              0.01    204.14      0  01:59       0.001     0.000
  YS02163601              0.01      8.43      0  02:19       0.000     0.000
  YS02164001              0.01      1.76      0  02:26       0.000     0.000
  YSB1171                 0.18    583.37      0  02:03       0.235     0.000
  
  
  **********************
  Storage Volume Summary
  **********************
  
  --------------------------------------------------------------------------------------------------
                         Average     Avg  Evap Exfil       Maximum     Max    Time of Max    Maximum
                          Volume    Pcnt  Pcnt  Pcnt        Volume    Pcnt     Occurrence    Outflow
  Storage Unit           1000 m3    Full  Loss  Loss       1000 m3    Full    days hr:min        LPS
  --------------------------------------------------------------------------------------------------
  CC-storage               2.235      35     0     0         4.373      68       0  02:26    1783.53
  JK-storage               0.068      23     0     0         0.213      73       0  02:10    2300.00
  XR-storage               0.952      66     0     0         1.111      77       0  08:00     380.00
  
  
  ***********************
  Outfall Loading Summary
  ***********************
  
  -----------------------------------------------------------
                         Flow       Avg       Max       Total
                         Freq      Flow      Flow      Volume
  Outfall Node           Pcnt       LPS       LPS    10^6 ltr
  -----------------------------------------------------------
  CC-1                  16.41    683.00    683.00       3.111
  CC-2                  10.15    683.00    683.00       1.884
  JK-1                   6.16   1000.00   1000.00       1.641
  JK-2                   3.80   1000.00   1000.00       1.045
  WSC                   99.96    627.10   1485.19      15.869
  -----------------------------------------------------------
  System                27.29   3993.10   4821.10      23.550
  
  
  ********************
  Link Flow Summary
  ********************
  
  -----------------------------------------------------------------------------
                                 Maximum  Time of Max   Maximum    Max/    Max/
                                  |Flow|   Occurrence   |Veloc|    Full    Full
  Link                 Type          LPS  days hr:min     m/sec    Flow   Depth
  -----------------------------------------------------------------------------
  1                    CONDUIT   1485.19     0  02:07      3.69    0.52    0.51
  HS02004478WS02006287 CONDUIT   2272.12     0  02:02      2.59    0.64    1.00
  HS02004479HS02004480 CONDUIT    497.13     0  01:59      0.71    0.48    1.00
  HS02004480HS02004478 CONDUIT   2138.62     0  01:57      3.06    9.01    1.00
  HS02004770HS02004777 CONDUIT    764.29     0  01:56      1.09    1.40    1.00
  HS02004777HS02004785 CONDUIT    778.56     0  01:56      1.16    0.96    1.00
  HS02004785HS02004788 CONDUIT    646.92     0  01:57      1.35    4.88    1.00
  HS02004788HS02004792 CONDUIT    811.10     0  02:17      1.43    0.54    1.00
  HS02004792HS02004799 CONDUIT   1577.75     0  01:58      2.25    0.97    1.00
  HS02004799HS02004480 CONDUIT   1755.45     0  01:58      2.51    2.22    1.00
  HS02004802HS02004478 CONDUIT    932.78     0  02:03      1.33    0.82    1.00
  HS02004807HS02004802 CONDUIT    932.39     0  02:03      1.33    1.78    1.00
  HS02004817HS02004807 CONDUIT    586.53     0  02:03      0.84    0.35    1.00
  HS02004817HS02004824 CONDUIT    585.82     0  02:03      0.84    0.26    1.00
  HS02004824HS02004830 CONDUIT    684.23     0  01:57      1.00    0.90    1.00
  HS02004830HS02004837 CONDUIT    688.20     0  01:57      1.06    0.69    1.00
  HS02004837HS02004842 CONDUIT    883.12     0  01:58      1.26    0.53    1.00
  HS02004842HS02004848 CONDUIT    882.51     0  01:58      1.40    0.51    1.00
  HS02004848HS02004852 CONDUIT   1105.93     0  01:59      1.65    1.25    1.00
  HS02004852HS02004856 CONDUIT   1111.11     0  01:59      1.59    1.27    1.00
  HS02004856HS02004862 CONDUIT   1127.03     0  01:59      1.71    1.12    1.00
  HS02004862HS02004870 CONDUIT   1146.54     0  01:59      1.82    1.24    1.00
  HS02004870HS02004876 CONDUIT   1203.81     0  01:59      1.72    0.80    1.00
  HS02004876HS02004881 CONDUIT   1360.94     0  01:59      2.13   14.48    1.00
  HS02004881HS02006253 CONDUIT   1453.94     0  01:59      2.53    0.28    1.00
  HS02004901HS02004770 CONDUIT    265.72     0  02:13      0.38    1.00    1.00
  WS02001211WS02001212 CONDUIT    209.26     0  02:40      0.54    0.16    0.69
  WS02001212WS02001213 CONDUIT    213.08     0  02:39      1.03    0.33    0.55
  WS02001213WS02003059 CONDUIT    217.63     0  02:39      0.47    0.36    0.89
  WS02003059WS02003060 CONDUIT    222.89     0  02:38      0.66    0.15    0.81
  WS02003060WS02003069 CONDUIT   1482.56     0  02:05      2.08    0.58    0.60
  WS02003066WSF200     CONDUIT   1279.67     0  02:02      3.25    0.22    0.38
  WS02003067WS02003066 CONDUIT   1279.65     0  02:02      1.98    0.41    0.56
  WS02003069WS02003072 CONDUIT   1482.89     0  02:06      1.88    0.71    0.66
  WS02003072WS02003073 CONDUIT   1483.04     0  02:06      2.04    3.20    0.61
  WS02004138WS02004139 CONDUIT    190.00     0  00:32      2.14    0.04    0.41
  WS02004139WS02001211 CONDUIT    196.09     0  02:43      0.55    0.25    0.60
  WS02004401WS02004402 CONDUIT   1279.30     0  02:02      1.63    1.54    1.00
  WS02004402WS02004403 CONDUIT   1280.05     0  02:02      1.63    1.84    1.00
  WS02004403WS02004404 CONDUIT   1280.08     0  02:02      1.63    0.93    1.00
  WS02004404WS02004405 CONDUIT   1281.24     0  02:02      1.63   12.55    1.00
  WS02004405WS02004406 CONDUIT   1280.60     0  02:02      1.63    2.53    1.00
  WS02004406WS02004407 CONDUIT   1280.47     0  02:02      1.72    0.57    0.94
  WS02004407WS02004409 CONDUIT   1279.44     0  02:02      1.77    0.45    0.94
  WS02004409WS02004410 CONDUIT   1279.74     0  02:02      1.63    1.66    1.00
  WS02004410WS02004411 CONDUIT   1279.62     0  02:02      1.63    1.75    1.00
  WS02004411WS02004412 CONDUIT   1279.62     0  02:02      1.63    1.82    1.00
  WS02004412WS02004413 CONDUIT   1279.63     0  02:02      1.63    0.86    1.00
  WS02004413WS02003067 CONDUIT   1279.52     0  02:02      1.99    0.55    0.76
  WS02006109WS02006110 CONDUIT   1123.01     0  02:17      2.23    2.16    1.00
  WS02006110WS02006113 CONDUIT   1122.97     0  02:17      2.23    1.02    1.00
  WS02006111WS02006112 CONDUIT   1122.88     0  02:17      2.23    0.53    1.00
  WS02006112WS02006115 CONDUIT   1279.36     0  02:01      1.63    0.76    1.00
  WS02006113WS02006111 CONDUIT   1122.93     0  02:16      2.71    1.35    1.00
  WS02006115WS02006116 CONDUIT   1279.59     0  02:02      1.63    1.64    1.00
  WS02006116WS02004401 CONDUIT   1279.31     0  02:02      1.63    1.76    1.00
  WS02006228WS02006109 CONDUIT   1272.04     0  02:02      2.53    5.56    1.00
  WS02006229WS02006228 CONDUIT   1273.62     0  02:02      2.53    4.22    1.00
  WS02006230WS02006229 CONDUIT    999.53     0  02:02      2.60   22.24    1.00
  WS02006231WS02006230 CONDUIT    558.31     0  04:20      1.52    8.47    1.00
  WS02006232WS02006231 CONDUIT    553.94     0  04:20      1.45    1.16    1.00
  WS02006234WS02006232 CONDUIT    553.07     0  04:20      1.44    1.12    1.00
  WS02006235WS02006234 CONDUIT    549.39     0  04:20      1.43    5.80    1.00
  WS02006238WS02006235 CONDUIT    425.05     0  03:41      1.45    0.95    1.00
  WS02006239WS02006238 CONDUIT    423.10     0  03:32      1.12    1.35    1.00
  WS02006240WS02006239 CONDUIT    424.53     0  03:41      1.26    1.34    1.00
  WS02006242WS02006240 CONDUIT    424.26     0  03:41      1.14    1.68    1.00
  WS02006243WS02006242 CONDUIT    423.74     0  03:41      1.34    0.91    1.00
  WS02006245WS02006243 CONDUIT    423.79     0  03:41      1.39    1.25    1.00
  WS02006247WS02006245 CONDUIT    423.67     0  03:32      1.37    3.36    1.00
  WS02006248WS02006247 CONDUIT    425.08     0  03:40      1.38    0.93    1.00
  WS02006249WS02006248 CONDUIT    428.16     0  03:40      1.38    2.35    1.00
  WS02006251WS02006249 CONDUIT   1343.86     0  01:59      3.49    3.88    1.00
  WS02006252WS02006251 CONDUIT    414.18     0  01:50     24.63    1.52    1.00
  WS02006253WS02006251 CONDUIT   1480.53     0  01:59      3.85    4.44    1.00
  WS02006256WS02006235 CONDUIT    288.93     0  00:00      4.23    3.06    1.00
  WS02006280WS02006229 CONDUIT   2272.94     0  02:02      4.20    0.49    1.00
  WS02006284WS02006280 CONDUIT   2272.70     0  02:02      3.02    0.95    1.00
  WS02006287WS02006284 CONDUIT   2271.74     0  02:02      2.89    1.05    1.00
  WSF200WS02003060     CONDUIT   1279.44     0  02:03      2.30    0.28    0.50
  YS02001580YS02001583 CONDUIT    123.56     0  01:57      0.72    0.48    1.00
  YS02001583YS02001586 CONDUIT    172.56     0  01:56      0.73    0.26    1.00
  YS02001586YS02001590 CONDUIT    320.51     0  02:19      1.26    0.56    1.00
  YS02001590YS02001593 CONDUIT    321.55     0  02:19      1.14    2.02    1.00
  YS02001593YS02001596 CONDUIT    317.97     0  02:10      1.73    0.50    1.00
  YS02001596YS02001600 CONDUIT    318.04     0  02:10      1.22    0.62    1.00
  YS02001600YS02001601 CONDUIT    317.93     0  02:14      1.12    0.55    1.00
  YS02001601YS02001602 CONDUIT    528.95     0  01:56      1.87    1.91    1.00
  YS02001602YS02001605 CONDUIT    528.92     0  01:56      1.87   11.19    1.00
  YS02001605YS02001607 CONDUIT    528.43     0  01:56      1.87    2.90    1.00
  YS02001607YS02001610 CONDUIT    530.46     0  01:56      0.68    0.50    1.00
  YS02001610YS02001613 CONDUIT    534.39     0  01:56      0.68    0.62    1.00
  YS02001613YS02001616 CONDUIT    537.03     0  01:56      0.69    0.46    1.00
  YS02001616YS02001619 CONDUIT    506.55     0  01:56      0.67    0.88    1.00
  YS02001619YS02001622 CONDUIT    935.99     0  01:56      1.20    1.38    1.00
  YS02001622YS02001625 CONDUIT    940.76     0  01:56      1.20    0.50    1.00
  YS02001625YS02001629 CONDUIT    941.60     0  01:56      1.20    0.45    1.00
  YS02001629YS02163301 CONDUIT    928.93     0  01:58      1.18    1.14    1.00
  YS02001633YS02163601 CONDUIT   1388.74     0  01:58      1.77    1.46    1.00
  YS02001641YS02001644 CONDUIT   1385.15     0  01:58      1.76    4.48    1.00
  YS02001644YS02001647 CONDUIT   1814.79     0  01:58      2.32    1.07    1.00
  YS02001647YS02001649 CONDUIT   1834.83     0  01:58      2.35    0.97    1.00
  YS02001649YS02001757 CONDUIT   2045.26     0  01:59      2.60    1.24    1.00
  YS02001652YS02001649 CONDUIT    743.74     0  02:02      0.95    0.37    1.00
  YS02001655YS02001652 CONDUIT    741.55     0  02:02      1.35    0.36    1.00
  YS02001658YS02001655 CONDUIT    740.64     0  02:02      1.93    0.31    1.00
  YS02001661YS02001658 CONDUIT    740.23     0  02:02      2.36    0.29    1.00
  YS02001664YS02001661 CONDUIT    791.50     0  02:01      2.38    0.25    0.77
  YS02001745YS02001748 CONDUIT    602.56     0  02:01      2.25    0.23    0.89
  YS02001748YS02001751 CONDUIT    489.38     0  02:01      1.74    0.25    1.00
  YS02001751YS02001754 CONDUIT    489.35     0  02:01      1.46    0.24    1.00
  YS02001754YS02001757 CONDUIT    488.38     0  02:01      0.62    0.20    1.00
  YS02001757CaochengTiaoxuchi CONDUIT   3355.83     0  02:02      4.27    1.45    1.00
  YS02001759YS02001757 CONDUIT   1304.25     0  02:01      1.66    0.93    1.00
  YS02001762YS02001759 CONDUIT    766.79     0  02:03      0.98    0.88    1.00
  YS02001765YS02001762 CONDUIT    765.97     0  02:03      0.98    0.72    1.00
  YS02001767YS02001765 CONDUIT    765.58     0  02:03      0.97    0.96    1.00
  YS02001770YS02001767 CONDUIT    765.39     0  02:03      0.97    3.03    1.00
  YS02001774YS02001770 CONDUIT    394.00     0  01:59      0.50    0.25    1.00
  YS02001779YS02001774 CONDUIT    395.53     0  01:59      0.50    0.20    1.00
  YS02001783YS02001784 CONDUIT   1157.27     0  02:01      2.30    1.60    1.00
  YS02001784YS02001785 CONDUIT   1158.04     0  02:01      2.30    2.69    1.00
  YS02001786YS02001788 CONDUIT   1158.91     0  02:00      2.47    2.23    0.89
  YS02001788YS02001790 CONDUIT   1172.20     0  02:00      2.71    0.86    0.84
  YS02001790YS02001791 CONDUIT   1278.79     0  02:07      3.41    1.39    0.70
  YS02001791YS02001793 CONDUIT   1240.50     0  02:03      6.76    0.53    0.45
  YS02001793JiankangQianchi CONDUIT   1272.93     0  02:05      2.53    0.10    0.65
  YS02001882YS02001884 CONDUIT     51.78     0  01:57      0.11    0.06    1.00
  YS02001884YS02001887 CONDUIT     70.93     0  01:56      0.10    0.09    1.00
  YS02001887YS02001890 CONDUIT    605.61     0  02:01      0.77    1.04    1.00
  YS02001890YS02001895 CONDUIT    514.98     0  02:04      0.66    0.24    1.00
  YS02001895YS02001898 CONDUIT    515.02     0  02:04      0.66    0.89    1.00
  YS02001898YS02001901 CONDUIT    515.24     0  02:04      0.66    0.33    1.00
  YS02001901YS02001904 CONDUIT    515.31     0  02:04      0.66    0.80    1.00
  YS02001904YS02001907 CONDUIT    515.31     0  02:04      0.66    0.18    1.00
  YS02001907YS02006553 CONDUIT    793.79     0  02:16      0.88    0.93    1.00
  YS02001910YS02001907 CONDUIT   1070.92     0  02:00      1.36    0.60    1.00
  YS02001915YS02001910 CONDUIT   1069.81     0  02:01      1.36    0.53    1.00
  YS02001918YS02001915 CONDUIT    451.78     0  01:59      0.58    0.25    1.00
  YS02001920YS02001918 CONDUIT    445.69     0  01:59      0.64    0.43    1.00
  YS02001923YS02001920 CONDUIT    447.07     0  01:59      0.70    0.20    1.00
  YS02001926YS02001923 CONDUIT    406.27     0  01:59      0.97    0.58    1.00
  YS02001929YS02001926 CONDUIT    400.45     0  02:00      1.15    0.19    1.00
  YS02006553YS02006556 CONDUIT    793.84     0  02:16      1.01    0.68    1.00
  YS02006556YS02006558 CONDUIT    794.44     0  02:16      1.01    0.63    1.00
  YS02006558YS02006561 CONDUIT   1157.26     0  02:01      4.09    2.56    1.00
  YS02006561YS02001783 CONDUIT   1157.10     0  02:01      2.30    0.60    1.00
  YS02163301YS02001633 CONDUIT    928.31     0  01:58      1.18    0.87    1.00
  YS02163601YS02164001 CONDUIT   1387.46     0  01:58      1.77    1.23    1.00
  YS02164001YS02001641 CONDUIT   1385.38     0  01:58      1.76    1.89    1.00
  YSB1154YSB6556       CONDUIT    321.95     0  02:02      0.84    0.58    1.00
  YSB1171HS02004479    CONDUIT    497.40     0  01:59      0.99    0.33    1.00
  YSB1174YSB1171       CONDUIT    284.05     0  02:01      0.74    0.44    1.00
  YSB6556YSB1171       CONDUIT    322.11     0  02:02      0.84    0.33    1.00
  CC-R1                PUMP       683.00     0  00:00              1.00
  CC-R2                PUMP       683.00     0  00:00              1.00
  CC-S1                PUMP       200.00     0  00:00              1.00
  CC-S2                PUMP       200.00     0  00:00              1.00
  JK-R1                PUMP      1000.00     0  00:00              1.00
  JK-R2                PUMP      1000.00     0  00:00              1.00
  JK-S                 PUMP       300.00     0  00:00              1.00
  XR-1                 PUMP        95.00     0  00:00              1.00
  XR-2                 PUMP        95.00     0  00:00              1.00
  XR-3                 PUMP        95.00     0  00:00              1.00
  XR-4                 PUMP        95.00     0  00:00              1.00
  
  
  ***************************
  Flow Classification Summary
  ***************************
  
  -------------------------------------------------------------------------------------
                      Adjusted    ---------- Fraction of Time in Flow Class ---------- 
                       /Actual         Up    Down  Sub   Sup   Up    Down  Norm  Inlet 
  Conduit               Length    Dry  Dry   Dry   Crit  Crit  Crit  Crit  Ltd   Ctrl  
  -------------------------------------------------------------------------------------
  1                       1.00   0.00  0.00  0.00  0.00  1.00  0.00  0.00  0.45  0.00
  HS02004478WS02006287    1.00   0.11  0.00  0.00  0.66  0.23  0.00  0.00  0.60  0.00
  HS02004479HS02004480    1.00   0.03  0.00  0.00  0.97  0.00  0.00  0.00  0.11  0.00
  HS02004480HS02004478    1.00   0.09  0.00  0.00  0.61  0.00  0.00  0.29  0.00  0.00
  HS02004770HS02004777    1.00   0.00  0.09  0.00  0.91  0.00  0.00  0.00  0.03  0.00
  HS02004777HS02004785    1.00   0.00  0.00  0.00  1.00  0.00  0.00  0.00  0.12  0.00
  HS02004785HS02004788    1.00   0.00  0.00  0.00  1.00  0.00  0.00  0.00  0.00  0.00
  HS02004788HS02004792    1.00   0.00  0.00  0.00  1.00  0.00  0.00  0.00  0.91  0.00
  HS02004792HS02004799    1.00   0.00  0.00  0.00  0.99  0.01  0.00  0.00  0.88  0.00
  HS02004799HS02004480    1.00   0.00  0.02  0.00  0.89  0.00  0.08  0.00  0.00  0.00
  HS02004802HS02004478    1.00   0.09  0.00  0.00  0.90  0.00  0.00  0.00  0.03  0.00
  HS02004807HS02004802    1.00   0.09  0.00  0.00  0.90  0.00  0.00  0.01  0.00  0.00
  HS02004817HS02004807    1.00   0.00  0.09  0.00  0.91  0.00  0.00  0.00  0.01  0.00
  HS02004817HS02004824    1.00   0.00  0.00  0.00  1.00  0.00  0.00  0.00  0.83  0.00
  HS02004824HS02004830    1.00   0.00  0.00  0.00  1.00  0.00  0.00  0.00  0.01  0.00
  HS02004830HS02004837    1.00   0.00  0.00  0.00  1.00  0.00  0.00  0.00  0.90  0.00
  HS02004837HS02004842    1.00   0.00  0.00  0.00  1.00  0.00  0.00  0.00  0.11  0.00
  HS02004842HS02004848    1.00   0.00  0.09  0.00  0.91  0.00  0.00  0.00  0.57  0.00
  HS02004848HS02004852    1.00   0.09  0.00  0.00  0.91  0.00  0.00  0.00  0.71  0.00
  HS02004852HS02004856    1.00   0.09  0.00  0.00  0.90  0.00  0.00  0.00  0.68  0.00
  HS02004856HS02004862    1.00   0.00  0.11  0.00  0.89  0.00  0.00  0.00  0.75  0.00
  HS02004862HS02004870    1.00   0.00  0.00  0.00  1.00  0.00  0.00  0.00  0.04  0.00
  HS02004870HS02004876    1.00   0.00  0.00  0.00  0.99  0.01  0.00  0.00  0.87  0.00
  HS02004876HS02004881    1.00   0.01  0.00  0.00  0.82  0.17  0.00  0.00  0.00  0.00
  HS02004881HS02006253    1.00   0.01  0.04  0.00  0.70  0.01  0.00  0.23  0.41  0.00
  HS02004901HS02004770    1.00   0.09  0.00  0.00  0.91  0.00  0.00  0.00  0.00  0.00
  WS02001211WS02001212    1.00   0.00  0.02  0.00  0.98  0.00  0.00  0.00  0.00  0.00
  WS02001212WS02001213    1.00   0.02  0.00  0.00  0.67  0.00  0.31  0.00  0.00  0.00
  WS02001213WS02003059    1.00   0.00  0.00  0.00  1.00  0.00  0.00  0.00  0.00  0.00
  WS02003059WS02003060    1.00   0.00  0.00  0.00  1.00  0.00  0.00  0.00  0.03  0.00
  WS02003060WS02003069    1.00   0.00  0.00  0.00  0.97  0.03  0.00  0.00  0.40  0.00
  WS02003066WSF200        1.00   0.06  0.00  0.00  0.00  0.94  0.00  0.00  0.65  0.00
  WS02003067WS02003066    1.00   0.06  0.00  0.00  0.94  0.00  0.00  0.00  0.00  0.00
  WS02003069WS02003072    1.00   0.00  0.00  0.00  1.00  0.00  0.00  0.00  0.46  0.00
  WS02003072WS02003073    1.00   0.00  0.00  0.00  0.00  0.00  0.00  1.00  0.00  0.00
  WS02004138WS02004139    1.00   0.00  0.00  0.00  0.98  0.00  0.00  0.01  0.98  0.00
  WS02004139WS02001211    1.00   0.00  0.00  0.00  1.00  0.00  0.00  0.00  0.00  0.00
  WS02004401WS02004402    1.00   0.02  0.00  0.00  0.98  0.00  0.00  0.00  0.00  0.00
  WS02004402WS02004403    1.00   0.02  0.00  0.00  0.98  0.00  0.00  0.00  0.00  0.00
  WS02004403WS02004404    1.00   0.00  0.02  0.00  0.98  0.00  0.00  0.00  0.00  0.00
  WS02004404WS02004405    1.00   0.00  0.00  0.00  1.00  0.00  0.00  0.00  0.00  0.00
  WS02004405WS02004406    1.00   0.00  0.00  0.00  1.00  0.00  0.00  0.00  0.00  0.00
  WS02004406WS02004407    1.00   0.00  0.03  0.00  0.96  0.00  0.00  0.00  0.00  0.00
  WS02004407WS02004409    1.00   0.04  0.00  0.00  0.94  0.02  0.00  0.00  0.84  0.00
  WS02004409WS02004410    1.00   0.04  0.00  0.00  0.96  0.00  0.00  0.00  0.00  0.00
  WS02004410WS02004411    1.00   0.04  0.00  0.00  0.96  0.00  0.00  0.00  0.00  0.00
  WS02004411WS02004412    1.00   0.04  0.00  0.00  0.96  0.00  0.00  0.00  0.00  0.00
  WS02004412WS02004413    1.00   0.04  0.00  0.00  0.95  0.00  0.00  0.00  0.00  0.00
  WS02004413WS02003067    1.00   0.04  0.01  0.00  0.00  0.00  0.94  0.00  0.00  0.00
  WS02006109WS02006110    1.00   0.00  0.00  0.00  0.99  0.00  0.01  0.00  0.00  0.00
  WS02006110WS02006113    1.00   0.01  0.01  0.00  0.99  0.00  0.00  0.00  0.00  0.00
  WS02006111WS02006112    1.00   0.01  0.00  0.00  0.98  0.00  0.00  0.00  0.76  0.00
  WS02006112WS02006115    1.00   0.01  0.00  0.00  0.98  0.00  0.00  0.00  0.00  0.00
  WS02006113WS02006111    1.00   0.01  0.00  0.00  0.19  0.80  0.00  0.00  0.12  0.00
  WS02006115WS02006116    1.00   0.02  0.00  0.00  0.98  0.00  0.00  0.01  0.00  0.00
  WS02006116WS02004401    1.00   0.02  0.00  0.00  0.98  0.00  0.00  0.00  0.00  0.00
  WS02006228WS02006109    1.00   0.00  0.00  0.00  1.00  0.00  0.00  0.00  0.00  0.00
  WS02006229WS02006228    1.00   0.00  0.00  0.00  0.99  0.00  0.00  0.00  0.00  0.00
  WS02006230WS02006229    1.00   0.00  0.00  0.00  0.99  0.00  0.00  0.01  0.02  0.00
  WS02006231WS02006230    1.00   0.00  0.00  0.00  0.65  0.00  0.34  0.00  0.00  0.00
  WS02006232WS02006231    1.00   0.00  0.00  0.00  1.00  0.00  0.00  0.00  0.00  0.00
  WS02006234WS02006232    1.00   0.00  0.00  0.00  1.00  0.00  0.00  0.00  0.03  0.00
  WS02006235WS02006234    1.00   0.00  0.00  0.00  0.95  0.00  0.05  0.00  0.00  0.00
  WS02006238WS02006235    1.00   0.00  0.00  0.00  1.00  0.00  0.00  0.00  0.00  0.00
  WS02006239WS02006238    1.00   0.00  0.00  0.00  1.00  0.00  0.00  0.00  0.05  0.00
  WS02006240WS02006239    1.00   0.00  0.00  0.00  0.87  0.00  0.00  0.12  0.02  0.00
  WS02006242WS02006240    1.00   0.00  0.00  0.00  1.00  0.00  0.00  0.00  0.00  0.00
  WS02006243WS02006242    1.00   0.00  0.00  0.00  1.00  0.00  0.00  0.00  0.43  0.00
  WS02006245WS02006243    1.00   0.00  0.00  0.00  0.92  0.00  0.00  0.07  0.01  0.00
  WS02006247WS02006245    1.00   0.00  0.00  0.00  0.99  0.00  0.00  0.01  0.00  0.00
  WS02006248WS02006247    1.00   0.00  0.00  0.00  1.00  0.00  0.00  0.00  0.41  0.00
  WS02006249WS02006248    1.00   0.00  0.00  0.00  0.79  0.00  0.21  0.00  0.00  0.00
  WS02006251WS02006249    1.00   0.00  0.00  0.00  1.00  0.00  0.00  0.00  0.39  0.00
  WS02006252WS02006251    1.00   0.00  0.18  0.00  0.28  0.00  0.54  0.00  0.01  0.00
  WS02006253WS02006251    1.00   0.00  0.00  0.00  1.00  0.00  0.00  0.00  0.01  0.00
  WS02006256WS02006235    1.00   0.00  0.00  0.00  0.99  0.01  0.00  0.00  0.00  0.00
  WS02006280WS02006229    1.00   0.10  0.00  0.00  0.15  0.03  0.00  0.71  0.01  0.00
  WS02006284WS02006280    1.00   0.10  0.00  0.00  0.10  0.01  0.00  0.79  0.00  0.00
  WS02006287WS02006284    1.00   0.08  0.02  0.00  0.52  0.37  0.00  0.00  0.66  0.00
  WSF200WS02003060        1.00   0.00  0.06  0.00  0.39  0.55  0.00  0.00  0.45  0.00
  YS02001580YS02001583    1.00   0.22  0.59  0.00  0.19  0.00  0.00  0.00  0.68  0.00
  YS02001583YS02001586    1.00   0.23  0.51  0.00  0.25  0.00  0.00  0.00  0.68  0.00
  YS02001586YS02001590    1.00   0.09  0.00  0.00  0.54  0.07  0.00  0.30  0.36  0.00
  YS02001590YS02001593    1.00   0.09  0.00  0.00  0.11  0.00  0.79  0.00  0.00  0.00
  YS02001593YS02001596    1.00   0.10  0.00  0.00  0.13  0.01  0.00  0.76  0.02  0.00
  YS02001596YS02001600    1.00   0.10  0.00  0.00  0.20  0.02  0.00  0.68  0.05  0.00
  YS02001600YS02001601    1.00   0.09  0.00  0.00  0.90  0.00  0.00  0.00  0.62  0.00
  YS02001601YS02001602    1.00   0.09  0.00  0.00  0.90  0.00  0.00  0.00  0.00  0.00
  YS02001602YS02001605    1.00   0.10  0.00  0.00  0.90  0.00  0.00  0.00  0.00  0.00
  YS02001605YS02001607    1.00   0.10  0.00  0.00  0.90  0.00  0.00  0.00  0.00  0.00
  YS02001607YS02001610    1.00   0.10  0.00  0.00  0.90  0.00  0.00  0.00  0.02  0.00
  YS02001610YS02001613    1.00   0.09  0.00  0.00  0.91  0.00  0.00  0.00  0.01  0.00
  YS02001613YS02001616    1.00   0.09  0.00  0.00  0.91  0.00  0.00  0.00  0.01  0.00
  YS02001616YS02001619    1.00   0.09  0.00  0.00  0.91  0.00  0.00  0.00  0.00  0.00
  YS02001619YS02001622    1.00   0.09  0.00  0.00  0.91  0.00  0.00  0.00  0.29  0.00
  YS02001622YS02001625    1.00   0.09  0.00  0.00  0.91  0.00  0.00  0.00  0.05  0.00
  YS02001625YS02001629    1.00   0.09  0.03  0.00  0.15  0.00  0.73  0.00  0.00  0.00
  YS02001629YS02163301    1.00   0.10  0.01  0.00  0.89  0.00  0.00  0.00  0.00  0.00
  YS02001633YS02163601    1.00   0.00  0.00  0.00  1.00  0.00  0.00  0.00  0.15  0.00
  YS02001641YS02001644    1.00   0.00  0.00  0.00  1.00  0.00  0.00  0.00  0.00  0.00
  YS02001644YS02001647    1.00   0.00  0.11  0.00  0.89  0.00  0.00  0.00  0.00  0.00
  YS02001647YS02001649    1.00   0.00  0.11  0.00  0.46  0.43  0.00  0.00  0.56  0.00
  YS02001649YS02001757    1.00   0.00  0.00  0.00  0.71  0.29  0.00  0.00  0.42  0.00
  YS02001652YS02001649    1.00   0.00  0.00  0.00  0.98  0.02  0.00  0.00  0.75  0.00
  YS02001655YS02001652    1.00   0.00  0.00  0.00  0.19  0.01  0.00  0.80  0.06  0.00
  YS02001658YS02001655    1.00   0.00  0.10  0.00  0.65  0.25  0.00  0.00  0.69  0.00
  YS02001661YS02001658    1.00   0.10  0.00  0.00  0.40  0.50  0.00  0.00  0.71  0.00
  YS02001664YS02001661    1.00   0.09  0.00  0.00  0.78  0.13  0.00  0.00  0.86  0.00
  YS02001745YS02001748    1.00   0.00  0.00  0.00  0.08  0.01  0.00  0.91  0.05  0.00
  YS02001748YS02001751    1.00   0.00  0.00  0.00  0.77  0.23  0.00  0.00  0.79  0.00
  YS02001751YS02001754    1.00   0.00  0.00  0.00  0.17  0.01  0.00  0.83  0.05  0.00
  YS02001754YS02001757    1.00   0.00  0.00  0.00  1.00  0.00  0.00  0.00  0.82  0.00
  YS02001757CaochengTiaoxuchi    1.00   0.00  0.00  0.00  0.98  0.02  0.00  0.00  0.68  0.00
  YS02001759YS02001757    1.00   0.00  0.00  0.00  1.00  0.00  0.00  0.00  0.54  0.00
  YS02001762YS02001759    1.00   0.00  0.00  0.00  1.00  0.00  0.00  0.00  0.06  0.00
  YS02001765YS02001762    1.00   0.00  0.00  0.00  1.00  0.00  0.00  0.00  0.68  0.00
  YS02001767YS02001765    1.00   0.00  0.00  0.00  1.00  0.00  0.00  0.00  0.01  0.00
  YS02001770YS02001767    1.00   0.00  0.00  0.00  1.00  0.00  0.00  0.00  0.00  0.00
  YS02001774YS02001770    1.00   0.00  0.09  0.00  0.83  0.00  0.08  0.00  0.03  0.00
  YS02001779YS02001774    1.00   0.00  0.00  0.00  1.00  0.00  0.00  0.00  0.78  0.00
  YS02001783YS02001784    1.00   0.00  0.12  0.00  0.88  0.00  0.00  0.00  0.56  0.00
  YS02001784YS02001785    1.00   0.00  0.00  0.00  1.00  0.00  0.00  0.00  0.17  0.00
  YS02001786YS02001788    1.00   0.00  0.00  0.00  0.74  0.26  0.00  0.00  0.00  0.00
  YS02001788YS02001790    1.00   0.00  0.00  0.00  0.15  0.85  0.00  0.00  0.82  0.00
  YS02001790YS02001791    1.00   0.00  0.00  0.00  0.01  0.99  0.00  0.00  0.16  0.00
  YS02001791YS02001793    1.00   0.00  0.00  0.00  0.00  1.00  0.00  0.00  0.01  0.00
  YS02001793JiankangQianchi    1.00   0.00  0.00  0.00  0.98  0.02  0.00  0.00  0.97  0.00
  YS02001882YS02001884    1.00   0.10  0.00  0.00  0.89  0.00  0.00  0.00  0.00  0.00
  YS02001884YS02001887    1.00   0.06  0.03  0.00  0.91  0.00  0.00  0.00  0.00  0.00
  YS02001887YS02001890    1.00   0.00  0.00  0.00  0.98  0.00  0.02  0.00  0.00  0.00
  YS02001890YS02001895    1.00   0.00  0.11  0.00  0.89  0.00  0.00  0.00  0.00  0.00
  YS02001895YS02001898    1.00   0.11  0.00  0.00  0.87  0.00  0.02  0.00  0.00  0.00
  YS02001898YS02001901    1.00   0.11  0.00  0.00  0.89  0.00  0.00  0.00  0.01  0.00
  YS02001901YS02001904    1.00   0.11  0.00  0.00  0.89  0.00  0.00  0.00  0.00  0.00
  YS02001904YS02001907    1.00   0.00  0.11  0.00  0.89  0.00  0.00  0.00  0.00  0.00
  YS02001907YS02006553    1.00   0.00  0.01  0.00  0.98  0.00  0.00  0.00  0.00  0.00
  YS02001910YS02001907    1.00   0.00  0.00  0.00  0.98  0.00  0.00  0.02  0.12  0.00
  YS02001915YS02001910    1.00   0.00  0.00  0.00  0.98  0.02  0.00  0.00  0.16  0.00
  YS02001918YS02001915    1.00   0.00  0.00  0.00  0.98  0.01  0.00  0.00  0.76  0.00
  YS02001920YS02001918    1.00   0.00  0.00  0.00  1.00  0.00  0.00  0.00  0.00  0.00
  YS02001923YS02001920    1.00   0.00  0.00  0.00  1.00  0.00  0.00  0.00  0.94  0.00
  YS02001926YS02001923    1.00   0.00  0.07  0.00  0.05  0.00  0.88  0.00  0.00  0.00
  YS02001929YS02001926    1.00   0.00  0.09  0.00  0.91  0.00  0.00  0.00  0.83  0.00
  YS02006553YS02006556    1.00   0.01  0.00  0.00  0.99  0.00  0.00  0.00  0.03  0.00
  YS02006556YS02006558    1.00   0.00  0.00  0.00  1.00  0.00  0.00  0.00  0.00  0.00
  YS02006558YS02006561    1.00   0.12  0.00  0.00  0.04  0.83  0.00  0.00  0.19  0.00
  YS02006561YS02001783    1.00   0.12  0.00  0.00  0.08  0.80  0.00  0.00  0.70  0.00
  YS02163301YS02001633    1.00   0.00  0.10  0.00  0.90  0.00  0.00  0.00  0.00  0.00
  YS02163601YS02164001    1.00   0.00  0.07  0.00  0.93  0.00  0.00  0.00  0.00  0.00
  YS02164001YS02001641    1.00   0.00  0.07  0.00  0.93  0.00  0.00  0.00  0.06  0.00
  YSB1154YSB6556          1.00   0.09  0.00  0.00  0.91  0.00  0.00  0.00  0.02  0.00
  YSB1171HS02004479       1.00   0.03  0.00  0.00  0.94  0.00  0.00  0.02  0.10  0.00
  YSB1174YSB1171          1.00   0.05  0.03  0.00  0.92  0.00  0.00  0.00  0.00  0.00
  YSB6556YSB1171          1.00   0.03  0.06  0.00  0.91  0.00  0.00  0.00  0.00  0.00
  
  
  *************************
  Conduit Surcharge Summary
  *************************
  
  ----------------------------------------------------------------------------
                                                           Hours        Hours 
                         --------- Hours Full --------   Above Full   Capacity
  Conduit                Both Ends  Upstream  Dnstream   Normal Flow   Limited
  ----------------------------------------------------------------------------
  HS02004478WS02006287        0.38      0.38      0.55      0.01         0.01
  HS02004479HS02004480        0.55      0.55      0.57      0.01         0.01
  HS02004480HS02004478        0.49      0.55      0.49      1.57         0.49
  HS02004770HS02004777        0.46      0.46      0.46      0.10         0.07
  HS02004777HS02004785        0.41      0.41      0.46      0.01         0.01
  HS02004785HS02004788        0.40      0.41      0.40      1.31         0.38
  HS02004788HS02004792        0.40      0.40      0.51      0.01         0.01
  HS02004792HS02004799        0.51      0.51      0.63      0.01         0.01
  HS02004799HS02004480        0.55      0.55      0.63      0.71         0.01
  HS02004802HS02004478        0.50      0.50      0.56      0.01         0.01
  HS02004807HS02004802        0.54      0.54      0.55      0.17         0.17
  HS02004817HS02004807        0.54      0.54      1.09      0.01         0.01
  HS02004817HS02004824        0.41      0.41      1.09      0.01         0.01
  HS02004824HS02004830        0.38      0.38      0.41      0.01         0.01
  HS02004830HS02004837        0.34      0.34      0.38      0.01         0.01
  HS02004837HS02004842        0.34      0.34      0.47      0.01         0.01
  HS02004842HS02004848        0.31      0.31      0.47      0.01         0.01
  HS02004848HS02004852        0.31      0.31      0.34      0.02         0.01
  HS02004852HS02004856        0.34      0.34      0.36      0.01         0.01
  HS02004856HS02004862        0.32      0.32      0.36      0.01         0.01
  HS02004862HS02004870        0.36      0.36      0.37      0.02         0.04
  HS02004870HS02004876        0.37      0.37      0.45      0.01         0.01
  HS02004876HS02004881        0.43      0.45      0.43      1.35         0.43
  HS02004881HS02006253        0.43      0.43      2.05      0.01         0.01
  HS02004901HS02004770        0.46      0.46      0.47      0.01         0.01
  WS02003072WS02003073        0.01      0.01      0.01      3.86         0.01
  WS02004401WS02004402        1.53      1.53      1.55      1.28         1.28
  WS02004402WS02004403        1.55      1.55      1.55      1.52         1.51
  WS02004403WS02004404        1.55      1.55      1.75      0.01         0.01
  WS02004404WS02004405        1.70      1.75      1.70      4.55         1.69
  WS02004405WS02004406        1.65      1.70      1.65      2.08         1.65
  WS02004406WS02004407        0.01      0.01      1.65      0.01         0.01
  WS02004407WS02004409        0.01      0.01      0.85      0.01         0.01
  WS02004409WS02004410        0.81      0.85      0.81      1.39         0.81
  WS02004410WS02004411        0.74      0.81      0.74      1.45         0.74
  WS02004411WS02004412        0.65      0.74      0.65      1.50         0.65
  WS02004412WS02004413        0.65      0.65      1.17      0.01         0.01
  WS02004413WS02003067        0.01      0.01      1.17      0.01         0.01
  WS02006109WS02006110        2.01      2.01      3.05      2.03         0.01
  WS02006110WS02006113        1.16      1.16      2.88      0.27         0.01
  WS02006111WS02006112        1.15      1.15      3.74      0.01         0.01
  WS02006112WS02006115        1.39      1.39      2.19      0.01         0.01
  WS02006113WS02006111        1.15      1.16      1.16      1.25         1.15
  WS02006115WS02006116        1.40      1.41      1.42      1.38         1.38
  WS02006116WS02004401        1.52      1.52      1.53      1.49         1.48
  WS02006228WS02006109        2.73      3.05      2.73      4.11         2.73
  WS02006229WS02006228        2.69      2.82      2.69      3.62         2.68
  WS02006230WS02006229        3.33      3.54      3.33      4.56         2.40
  WS02006231WS02006230        1.81      1.81      2.04      4.36         0.90
  WS02006232WS02006231        2.01      2.01      2.81      0.10         0.13
  WS02006234WS02006232        2.36      2.36      2.81      0.05         0.08
  WS02006235WS02006234        2.28      2.29      2.41      4.18         0.87
  WS02006238WS02006235        2.44      2.44      2.78      0.01         0.29
  WS02006239WS02006238        2.52      2.69      2.53      2.39         0.95
  WS02006240WS02006239        2.40      2.46      2.40      2.32         0.83
  WS02006242WS02006240        2.42      2.42      3.00      3.00         0.74
  WS02006243WS02006242        2.50      2.50      2.83      0.01         0.03
  WS02006245WS02006243        2.42      2.46      2.44      1.50         0.87
  WS02006247WS02006245        2.42      2.56      2.42      3.82         1.34
  WS02006248WS02006247        2.42      2.42      2.50      0.01         0.05
  WS02006249WS02006248        2.36      2.37      2.45      2.91         0.01
  WS02006251WS02006249        2.43      2.47      2.45      2.95         2.33
  WS02006252WS02006251        3.11      3.11      3.15      2.79         0.01
  WS02006253WS02006251        2.45      2.45      2.55      0.67         0.03
  WS02006256WS02006235        4.37      4.42      7.53      0.59         0.01
  WS02006280WS02006229        0.66      0.66      0.78      0.01         0.01
  WS02006284WS02006280        0.57      0.57      0.64      0.01         0.01
  WS02006287WS02006284        0.48      0.48      0.58      0.20         0.20
  YS02001580YS02001583        0.47      0.47      0.52      0.01         0.01
  YS02001583YS02001586        0.48      0.48      0.61      0.01         0.01
  YS02001586YS02001590        0.62      0.62      0.68      0.01         0.01
  YS02001590YS02001593        0.68      0.68      0.70      0.72         0.01
  YS02001593YS02001596        0.69      0.69      0.78      0.01         0.01
  YS02001596YS02001600        0.83      0.83      0.93      0.01         0.01
  YS02001600YS02001601        0.99      0.99      1.31      0.01         0.01
  YS02001601YS02001602        1.18      1.18      1.35      0.94         0.01
  YS02001602YS02001605        1.12      1.12      1.18      2.13         0.01
  YS02001605YS02001607        1.07      1.12      1.07      1.27         1.07
  YS02001607YS02001610        0.66      0.66      0.68      0.01         0.01
  YS02001610YS02001613        0.65      0.65      0.68      0.01         0.01
  YS02001613YS02001616        0.61      0.61      0.65      0.01         0.01
  YS02001616YS02001619        0.60      0.60      0.61      0.01         0.01
  YS02001619YS02001622        0.59      0.60      0.59      0.70         0.56
  YS02001622YS02001625        0.59      0.59      0.76      0.01         0.01
  YS02001625YS02001629        0.55      0.55      0.76      0.01         0.01
  YS02001629YS02163301        0.76      0.76      0.77      0.15         0.17
  YS02001633YS02163601        0.79      0.79      0.81      0.34         0.33
  YS02001641YS02001644        0.69      0.73      0.69      1.39         0.69
  YS02001644YS02001647        0.50      0.50      0.69      0.04         0.01
  YS02001647YS02001649        0.50      0.50      0.62      0.01         0.01
  YS02001649YS02001757        0.61      0.62      0.67      0.07         0.08
  YS02001652YS02001649        0.44      0.44      0.62      0.01         0.01
  YS02001655YS02001652        0.29      0.29      0.43      0.01         0.01
  YS02001658YS02001655        0.11      0.11      0.29      0.01         0.01
  YS02001661YS02001658        0.01      0.01      0.11      0.01         0.01
  YS02001664YS02001661        0.01      0.01      0.01      0.01         0.01
  YS02001745YS02001748        0.01      0.01      0.02      0.01         0.01
  YS02001748YS02001751        0.08      0.08      0.18      0.01         0.01
  YS02001751YS02001754        0.18      0.18      0.33      0.01         0.01
  YS02001754YS02001757        0.37      0.37      0.67      0.01         0.01
  YS02001757CaochengTiaoxuchi        0.64      0.67      1.82      0.30         0.24
  YS02001759YS02001757        0.57      0.57      0.67      0.01         0.01
  YS02001762YS02001759        0.54      0.54      0.57      0.01         0.02
  YS02001765YS02001762        0.50      0.50      0.54      0.01         0.01
  YS02001767YS02001765        0.46      0.46      0.50      0.01         0.02
  YS02001770YS02001767        0.46      0.47      0.46      0.45         0.35
  YS02001774YS02001770        0.43      0.43      0.53      0.01         0.01
  YS02001779YS02001774        0.33      0.33      0.53      0.01         0.01
  YS02001783YS02001784        0.42      0.44      0.42      0.58         0.42
  YS02001784YS02001785        0.32      0.42      0.32      0.80         0.32
  YS02001786YS02001788        0.01      0.32      0.01      0.67         0.01
  YS02001790YS02001791        0.01      0.01      0.01      0.41         0.01
  YS02001793JiankangQianchi        0.01      0.01      6.63      0.01         0.01
  YS02001882YS02001884        0.39      0.39      0.40      0.01         0.01
  YS02001884YS02001887        0.42      0.42      0.44      0.01         0.01
  YS02001887YS02001890        0.45      0.45      0.46      0.03         0.01
  YS02001890YS02001895        0.38      0.38      0.48      0.01         0.01
  YS02001895YS02001898        0.38      0.38      0.38      0.01         0.01
  YS02001898YS02001901        0.39      0.39      0.42      0.01         0.01
  YS02001901YS02001904        0.42      0.42      0.42      0.01         0.01
  YS02001904YS02001907        0.42      0.42      0.66      0.01         0.01
  YS02001907YS02006553        0.81      0.81      0.87      0.01         0.01
  YS02001910YS02001907        0.47      0.47      0.65      0.01         0.01
  YS02001915YS02001910        0.39      0.39      0.47      0.01         0.01
  YS02001918YS02001915        0.31      0.31      0.39      0.01         0.01
  YS02001920YS02001918        0.31      0.31      0.32      0.01         0.01
  YS02001923YS02001920        0.27      0.27      0.32      0.01         0.01
  YS02001926YS02001923        0.01      0.01      0.01      0.01         0.01
  YS02001929YS02001926        0.01      0.01      0.01      0.01         0.01
  YS02006553YS02006556        0.56      0.56      0.66      0.01         0.01
  YS02006556YS02006558        0.61      0.61      0.67      0.01         0.01
  YS02006558YS02006561        0.35      0.55      0.35      0.76         0.35
  YS02006561YS02001783        0.28      0.28      0.44      0.01         0.01
  YS02163301YS02001633        0.77      0.77      0.80      0.01         0.01
  YS02163601YS02164001        0.73      0.73      0.81      0.06         0.01
  YS02164001YS02001641        0.73      0.73      0.73      0.68         0.60
  YSB1154YSB6556              0.60      0.60      0.74      0.01         0.01
  YSB1171HS02004479           0.51      0.51      0.74      0.01         0.01
  YSB1174YSB1171              0.66      0.66      0.99      0.01         0.01
  YSB6556YSB1171              0.60      0.60      1.16      0.01         0.01
  
  
  ***************
  Pumping Summary
  ***************
  
  ---------------------------------------------------------------------------------------------------------
                                                  Min       Avg       Max     Total     Power    % Time Off
                        Percent   Number of      Flow      Flow      Flow    Volume     Usage    Pump Curve
  Pump                 Utilized   Start-Ups       LPS       LPS       LPS  10^6 ltr     Kw-hr    Low   High
  ---------------------------------------------------------------------------------------------------------
  CC-R1                   15.83           6      0.00    683.00    683.00     3.115     58.26    0.0    7.0
  CC-R2                    9.58           5      0.00    683.00    683.00     1.884     35.49    0.0   11.4
  CC-S1                   45.12          28      0.00    200.00    200.00     2.599     17.40    0.0    0.0
  CC-S2                   44.00          16      0.00    200.00    200.00     2.534     17.11    0.0    0.0
  JK-R1                    5.70          17      0.00   1000.00   1000.00     1.641     16.74    0.0    0.0
  JK-R2                    3.63          15      0.00   1000.00   1000.00     1.044      9.91    0.0    0.0
  JK-S                    11.69          35      0.00    300.00    300.00     1.010     17.63    0.0    0.0
  XR-1                    97.91           2      0.00     95.00     95.00     2.679      9.63    0.0    0.0
  XR-2                    93.95           2      0.00     95.00     95.00     2.571      8.80    0.0    0.0
  XR-3                     0.00           1      0.00     95.00     95.00     0.000      0.00    0.0    0.0
  XR-4                     0.00           1      0.00     95.00     95.00     0.000      0.00    0.0    0.0
  

  Analysis begun on:  Mon Feb 27 13:40:22 2023
  Analysis ended on:  Mon Feb 27 13:40:26 2023
  Total elapsed time: 00:00:04