
  OWA STORM WATER MANAGEMENT MODEL - VERSION v5.1.14 (OWA 2023-01-25)
  --------------------------------------------------------------

  WARNING 04: minimum elevation drop used for Conduit WS02004404WS02004405
  WARNING 03: negative offset ignored for Link YS02001904YS02001907
  
  *********************************************************
  NOTE: The summary statistics displayed in this report are
  based on results found at every computational time step,  
  not just on results from each reporting time step.
  *********************************************************
  
  ****************
  Analysis Options
  ****************
  Flow Units ............... LPS
  Process Models:
    Rainfall/Runoff ........ YES
    RDII ................... NO
    Snowmelt ............... NO
    Groundwater ............ NO
    Flow Routing ........... YES
    Ponding Allowed ........ NO
    Water Quality .......... NO
  Infiltration Method ...... HORTON
  Flow Routing Method ...... DYNWAVE
  Surcharge Method ......... EXTRAN
  Starting Date ............ 08/28/2015 08:00:00
  Ending Date .............. 08/28/2015 16:00:00
  Antecedent Dry Days ...... 8.0
  Report Time Step ......... 00:01:00
  Wet Time Step ............ 00:01:00
  Dry Time Step ............ 00:01:00
  Routing Time Step ........ 30.00 sec
  Variable Time Step ....... YES
  Maximum Trials ........... 8
  Number of Threads ........ 1
  Head Tolerance ........... 0.001500 m
  
  
  **************************        Volume         Depth
  Runoff Quantity Continuity     hectare-m            mm
  **************************     ---------       -------
  Total Precipitation ......         3.004        49.583
  Evaporation Loss .........         0.000         0.000
  Infiltration Loss ........         0.227         3.753
  Surface Runoff ...........         2.716        44.838
  Final Storage ............         0.061         1.005
  Continuity Error (%) .....        -0.026
  
  
  **************************        Volume        Volume
  Flow Routing Continuity        hectare-m      10^6 ltr
  **************************     ---------     ---------
  Dry Weather Inflow .......         0.630         6.296
  Wet Weather Inflow .......         2.716        27.161
  Groundwater Inflow .......         0.000         0.000
  RDII Inflow ..............         0.000         0.000
  External Inflow ..........         0.105         1.045
  External Outflow .........         2.313        23.133
  Flooding Loss ............         1.132        11.323
  Evaporation Loss .........         0.000         0.000
  Exfiltration Loss ........         0.000         0.000
  Initial Stored Volume ....         0.303         3.031
  Final Stored Volume ......         0.321         3.215
  Continuity Error (%) .....        -0.367
  
  
  *************************
  Highest Continuity Errors
  *************************
  Node YS02001583 (-12.00%)
  Node YS02001884 (4.62%)
  Node WS02006256 (-2.33%)
  Node YS02001774 (1.83%)
  Node HS02004842 (1.83%)
  
  
  ***************************
  Time-Step Critical Elements
  ***************************
  Link WS02006252WS02006251 (42.82%)
  Link WS02006280WS02006229 (24.09%)
  Link WS02006238WS02006235 (11.33%)
  Link WS02004404WS02004405 (5.38%)
  Link YS02001791YS02001793 (4.56%)
  
  
  ********************************
  Highest Flow Instability Indexes
  ********************************
  Link WS02006113WS02006111 (40)
  Link WS02006111WS02006112 (22)
  Link WS02006252WS02006251 (17)
  Link WS02006256WS02006235 (16)
  Link WS02006238WS02006235 (15)
  
  
  *************************
  Routing Time Step Summary
  *************************
  Minimum Time Step           :     0.01 sec
  Average Time Step           :     1.72 sec
  Maximum Time Step           :     6.46 sec
  Percent in Steady State     :    -0.00
  Average Iterations per Step :     3.15
  Percent Not Converging      :    12.72
  
  
  ***************************
  Subcatchment Runoff Summary
  ***************************
  
  ------------------------------------------------------------------------------------------------------------------------------
                            Total      Total      Total      Total     Imperv       Perv      Total       Total     Peak  Runoff
                           Precip      Runon       Evap      Infil     Runoff     Runoff     Runoff      Runoff   Runoff   Coeff
  Subcatchment                 mm         mm         mm         mm         mm         mm         mm    10^6 ltr      LPS
  ------------------------------------------------------------------------------------------------------------------------------
  sub0                      49.58       0.00       0.00       0.97      44.86       2.50      47.37        0.04    29.99   0.955
  sub1                      49.58       0.00       0.00       1.63      42.88       3.83      46.71        0.31   193.79   0.942
  sub10                     49.58       0.00       0.00       1.15      44.34       2.82      47.15        0.52   333.93   0.951
  sub11                     49.58       0.00       0.00       1.14      44.35       2.83      47.19        0.55   374.08   0.952
  sub12                     49.58       0.00       0.00       1.85      41.96       4.60      46.56        0.41   305.76   0.939
  sub14                     49.58       0.00       0.00       1.30      43.86       3.17      47.03        0.45   296.66   0.949
  sub15                     49.58       0.00       0.00       5.01      33.74       9.87      43.61        0.75   436.20   0.880
  sub16                     49.58       0.00       0.00       5.19      32.31      11.17      43.49        0.46   295.41   0.877
  sub17                     49.58       0.00       0.00       5.06      32.79      10.81      43.60        0.37   239.82   0.879
  sub2                      49.58       0.00       0.00       7.10      30.34      11.25      41.58        0.39   187.20   0.839
  sub22                     49.58       0.00       0.00       7.57      27.48      13.76      41.24        2.61  1426.02   0.832
  sub23                     49.58       0.00       0.00       6.18      30.38      12.17      42.54        2.03  1197.24   0.858
  sub3                      49.58       0.00       0.00       7.68      30.30      10.66      40.96        0.92   398.93   0.826
  sub4                      49.58       0.00       0.00       1.80      42.72       3.65      46.38        0.97   444.72   0.935
  sub5                      49.58       0.00       0.00       1.01      44.81       2.47      47.28        0.54   336.69   0.953
  sub60                     49.58       0.00       0.00       1.74      42.43       4.22      46.65        0.61   422.81   0.941
  sub61                     49.58       0.00       0.00       2.51      40.02       5.92      45.94        0.84   582.26   0.927
  sub62                     49.58       0.00       0.00       1.16      44.33       2.81      47.14        1.29   815.79   0.951
  sub63                     49.58       0.00       0.00       4.60      34.23       9.78      44.01        1.00   632.01   0.888
  sub64                     49.58       0.00       0.00       2.33      40.94       5.11      46.05        1.11   645.72   0.929
  sub65                     49.58       0.00       0.00       2.02      41.89       4.43      46.32        1.28   719.50   0.934
  sub66                     49.58       0.00       0.00       5.64      34.13       8.74      42.87        2.00   899.35   0.865
  sub67                     49.58       0.00       0.00       1.12      44.37       2.85      47.22        0.88   652.55   0.952
  sub68                     49.58       0.00       0.00       2.08      41.45       4.87      46.32        1.27   835.17   0.934
  sub69                     49.58       0.00       0.00       1.82      42.04       5.62      47.66        1.76   966.35   0.961
  sub7                      49.58       0.00       0.00       1.28      43.88       3.19      47.06        0.16   111.57   0.949
  sub70                     49.58       0.00       0.00       6.00      32.56      10.86      43.42        1.25   507.12   0.876
  sub71                     49.58       0.00       0.00       1.18      44.29       2.78      47.08        1.23   702.93   0.949
  sub72                     49.58       0.00       0.00       1.05      44.71       2.42      47.13        0.65   332.67   0.951
  sub8                      49.58       0.00       0.00       1.29      43.87       3.17      47.04        0.30   202.14   0.949
  sub9                      49.58       0.00       0.00       1.29      43.87       3.17      47.04        0.23   150.92   0.949
  
  
  ******************
  Node Depth Summary
  ******************
  
  ---------------------------------------------------------------------------------
                                 Average  Maximum  Maximum  Time of Max    Reported
                                   Depth    Depth      HGL   Occurrence   Max Depth
  Node                 Type       Meters   Meters   Meters  days hr:min      Meters
  ---------------------------------------------------------------------------------
  HS02004478           JUNCTION     0.16     1.56    10.79     0  01:49        1.55
  HS02004479           JUNCTION     0.22     1.68    10.88     0  01:49        1.66
  HS02004480           JUNCTION     0.19     1.81    11.05     0  01:48        1.81
  HS02004770           JUNCTION     0.21     1.42    11.25     0  01:46        1.42
  HS02004777           JUNCTION     0.23     1.48    11.28     0  01:46        1.48
  HS02004785           JUNCTION     0.13     1.49    11.39     0  01:46        1.46
  HS02004788           JUNCTION     0.10     1.42    11.32     0  01:46        1.42
  HS02004792           JUNCTION     0.14     1.60    11.12     0  01:47        1.60
  HS02004799           JUNCTION     0.24     1.76    10.97     0  01:47        1.76
  HS02004802           JUNCTION     0.26     1.76    10.89     0  01:49        1.72
  HS02004807           JUNCTION     0.22     1.92    11.09     0  01:47        1.92
  HS02004817           JUNCTION     0.53     2.44    11.29     0  01:47        2.44
  HS02004824           JUNCTION     0.11     2.01    11.41     0  01:47        2.01
  HS02004830           JUNCTION     0.12     2.03    11.50     0  01:47        1.58
  HS02004837           JUNCTION     0.09     2.04    11.62     0  01:47        1.50
  HS02004842           JUNCTION     0.39     2.22    11.49     0  01:48        2.22
  HS02004848           JUNCTION     0.07     1.94    11.54     0  01:49        1.50
  HS02004852           JUNCTION     0.08     2.00    11.51     0  01:49        1.55
  HS02004856           JUNCTION     0.14     2.04    11.47     0  01:49        1.60
  HS02004862           JUNCTION     0.09     2.00    11.38     0  01:49        1.58
  HS02004870           JUNCTION     0.08     2.10    11.39     0  01:49        1.58
  HS02004876           JUNCTION     0.12     2.26    11.29     0  01:49        1.70
  HS02004881           JUNCTION     0.08     2.15    11.18     0  01:49        1.51
  HS02004901           JUNCTION     0.21     1.42    11.24     0  01:46        1.42
  WS02001211           JUNCTION     0.62     0.81     5.65     0  01:52        0.81
  WS02001212           JUNCTION     0.37     0.58     5.65     0  01:52        0.58
  WS02001213           JUNCTION     0.59     0.88     5.65     0  01:51        0.86
  WS02003059           JUNCTION     0.66     0.95     5.63     0  01:53        0.94
  WS02003060           JUNCTION     0.39     0.68     5.62     0  01:53        0.68
  WS02003066           JUNCTION     0.24     0.45     6.01     0  01:50        0.45
  WS02003067           JUNCTION     0.58     0.89     6.21     0  01:53        0.89
  WS02003069           JUNCTION     0.44     0.77     5.36     0  01:54        0.77
  WS02003072           JUNCTION     0.50     0.81     5.18     0  01:54        0.81
  WS02003073           JUNCTION     0.30     0.51     4.58     0  01:55        0.51
  WS02004138           JUNCTION     0.13     0.14     7.39     0  00:29        0.14
  WS02004139           JUNCTION     0.56     0.75     5.66     0  01:53        0.74
  WS02004401           JUNCTION     0.76     2.66     8.66     0  01:43        2.66
  WS02004402           JUNCTION     0.78     2.68     8.64     0  01:43        2.68
  WS02004403           JUNCTION     0.79     2.50     8.43     0  01:43        2.50
  WS02004404           JUNCTION     0.85     2.36     8.21     0  01:43        2.36
  WS02004405           JUNCTION     0.84     2.11     7.96     0  01:43        2.11
  WS02004406           JUNCTION     0.84     1.92     7.75     0  01:41        1.54
  WS02004407           JUNCTION     0.26     0.90     7.21     0  01:50        0.90
  WS02004409           JUNCTION     0.55     1.66     7.43     0  01:48        1.66
  WS02004410           JUNCTION     0.56     1.28     7.00     0  01:49        1.28
  WS02004411           JUNCTION     0.56     1.19     6.87     0  01:50        1.19
  WS02004412           JUNCTION     0.57     1.10     6.74     0  01:50        1.09
  WS02004413           JUNCTION     0.71     1.14     6.61     0  01:50        1.14
  WS02006109           JUNCTION     0.93     2.64     9.26     0  01:47        2.64
  WS02006110           JUNCTION     0.88     2.60     9.19     0  01:43        2.60
  WS02006111           JUNCTION     0.37     2.26     8.97     0  01:43        2.26
  WS02006112           JUNCTION     0.96     2.68     8.56     0  01:43        2.68
  WS02006113           JUNCTION     0.46     2.27     9.16     0  01:43        2.27
  WS02006115           JUNCTION     0.67     2.80     8.94     0  01:43        2.80
  WS02006116           JUNCTION     0.74     2.87     8.91     0  01:43        2.87
  WS02006228           JUNCTION     0.97     3.03     9.68     0  01:49        3.01
  WS02006229           JUNCTION     0.97     3.22     9.91     0  01:49        3.19
  WS02006230           JUNCTION     0.93     2.65     9.39     0  01:39        2.65
  WS02006231           JUNCTION     0.67     2.21     9.33     0  01:46        2.21
  WS02006232           JUNCTION     0.79     2.18     9.22     0  01:39        2.18
  WS02006234           JUNCTION     0.69     1.96     9.12     0  01:43        1.96
  WS02006235           JUNCTION     0.71     2.00     9.16     0  02:48        1.93
  WS02006238           JUNCTION     0.74     2.07     9.22     0  02:48        1.96
  WS02006239           JUNCTION     0.69     2.00     9.21     0  01:48        2.00
  WS02006240           JUNCTION     0.64     2.04     9.34     0  01:39        1.79
  WS02006242           JUNCTION     0.70     1.55     8.82     0  01:39        1.55
  WS02006243           JUNCTION     0.59     1.48     8.90     0  01:39        1.37
  WS02006245           JUNCTION     0.58     1.47     8.95     0  01:39        1.28
  WS02006247           JUNCTION     0.59     1.30     8.80     0  01:39        1.28
  WS02006248           JUNCTION     0.54     1.10     8.69     0  01:39        1.10
  WS02006249           JUNCTION     0.56     1.09     8.69     0  01:39        1.09
  WS02006251           JUNCTION     0.63     2.21     9.88     0  01:48        2.21
  WS02006252           JUNCTION     0.45     1.50     9.74     0  00:00        1.50
  WS02006253           JUNCTION     0.68     3.31    10.95     0  01:49        2.81
  WS02006256           JUNCTION     1.00     2.35     9.28     0  00:00        2.35
  WS02006280           JUNCTION     0.21     1.73    10.01     0  01:49        1.72
  WS02006284           JUNCTION     0.47     1.93    10.33     0  01:52        1.93
  WS02006287           JUNCTION     0.21     1.72    10.67     0  01:49        1.72
  WSF200               JUNCTION     0.24     0.52     5.75     0  01:53        0.52
  YS02001580           JUNCTION     0.05     1.05     9.59     0  01:47        1.05
  YS02001583           JUNCTION     0.09     1.14     9.64     0  01:47        1.11
  YS02001586           JUNCTION     0.13     1.13     9.30     0  01:47        1.13
  YS02001590           JUNCTION     0.21     1.40     9.26     0  01:45        1.40
  YS02001593           JUNCTION     0.15     1.34     9.20     0  01:47        1.28
  YS02001596           JUNCTION     0.21     1.69     9.11     0  01:47        1.65
  YS02001600           JUNCTION     0.25     1.87     9.00     0  01:46        1.87
  YS02001601           JUNCTION     0.43     2.06     8.90     0  01:46        2.06
  YS02001602           JUNCTION     0.35     1.87     8.77     0  01:46        1.87
  YS02001605           JUNCTION     0.33     1.78     8.68     0  01:46        1.78
  YS02001607           JUNCTION     0.34     1.68     8.53     0  02:01        1.68
  YS02001610           JUNCTION     0.39     1.68     8.48     0  01:47        1.68
  YS02001613           JUNCTION     0.34     1.69     8.53     0  01:47        1.65
  YS02001616           JUNCTION     0.28     1.61     8.52     0  01:47        1.59
  YS02001619           JUNCTION     0.25     1.61     8.54     0  01:47        1.61
  YS02001622           JUNCTION     0.24     1.62     8.52     0  01:47        1.62
  YS02001625           JUNCTION     0.51     1.78     8.38     0  01:47        1.78
  YS02001629           JUNCTION     0.34     1.85     8.40     0  01:47        1.85
  YS02001633           JUNCTION     0.43     2.08     8.53     0  01:48        2.08
  YS02001641           JUNCTION     0.42     2.10     8.54     0  01:48        2.10
  YS02001644           JUNCTION     0.42     1.92     8.35     0  01:48        1.92
  YS02001647           JUNCTION     0.21     1.79     8.40     0  01:50        1.70
  YS02001649           JUNCTION     0.24     1.98     8.37     0  01:50        1.86
  YS02001652           JUNCTION     0.15     1.89     8.48     0  01:49        1.69
  YS02001655           JUNCTION     0.11     1.98     8.83     0  01:49        1.47
  YS02001658           JUNCTION     0.08     1.84     8.98     0  01:50        1.21
  YS02001661           JUNCTION     0.12     1.39     8.80     0  01:51        1.00
  YS02001664           JUNCTION     0.04     0.64     8.57     0  01:51        0.61
  YS02001745           JUNCTION     0.04     0.98     8.49     0  01:50        0.72
  YS02001748           JUNCTION     0.07     1.83     8.91     0  01:50        1.13
  YS02001751           JUNCTION     0.09     2.20     9.08     0  01:50        1.30
  YS02001754           JUNCTION     0.13     2.02     8.63     0  01:50        1.55
  YS02001757           JUNCTION     0.26     2.08     8.34     0  01:50        1.87
  YS02001759           JUNCTION     0.21     2.02     8.38     0  01:50        1.86
  YS02001762           JUNCTION     0.21     2.00     8.40     0  01:50        1.84
  YS02001765           JUNCTION     0.19     1.96     8.41     0  01:50        1.82
  YS02001767           JUNCTION     0.19     1.93     8.42     0  01:50        1.83
  YS02001770           JUNCTION     0.20     1.95     8.45     0  01:50        1.87
  YS02001774           JUNCTION     0.26     2.01     8.43     0  01:50        1.94
  YS02001779           JUNCTION     0.11     1.68     8.37     0  01:49        1.68
  YS02001783           JUNCTION     0.18     1.36     7.50     0  01:48        1.22
  YS02001784           JUNCTION     0.20     1.20     7.27     0  01:48        1.13
  YS02001786           JUNCTION     0.17     0.96     6.99     0  01:48        0.87
  YS02001788           JUNCTION     0.12     0.62     6.60     0  01:50        0.62
  YS02001790           JUNCTION     0.14     0.72     6.37     0  01:51        0.72
  YS02001791           JUNCTION     0.09     0.44     5.91     0  01:50        0.42
  YS02001793           JUNCTION     0.05     0.28     5.11     0  02:01        0.28
  YS02001882           JUNCTION     0.23     1.83     8.55     0  01:47        1.83
  YS02001884           JUNCTION     0.32     1.93     8.55     0  01:48        1.93
  YS02001887           JUNCTION     0.40     2.00     8.54     0  01:48        2.00
  YS02001890           JUNCTION     0.43     1.81     8.32     0  01:47        1.81
  YS02001895           JUNCTION     0.20     1.64     8.39     0  01:48        1.56
  YS02001898           JUNCTION     0.21     1.68     8.42     0  01:48        1.56
  YS02001901           JUNCTION     0.33     1.78     8.39     0  01:48        1.67
  YS02001904           JUNCTION     0.31     1.69     8.32     0  01:48        1.66
  YS02001907           JUNCTION     0.62     1.96     8.25     0  01:48        1.96
  YS02001910           JUNCTION     0.42     2.01     8.52     0  01:49        1.82
  YS02001915           JUNCTION     0.23     1.98     8.69     0  01:49        1.68
  YS02001918           JUNCTION     0.11     1.81     8.88     0  01:48        1.35
  YS02001920           JUNCTION     0.19     2.10     9.10     0  01:49        1.43
  YS02001923           JUNCTION     0.08     2.03     9.29     0  01:49        1.22
  YS02001926           JUNCTION     0.12     1.90     9.35     0  01:49        1.04
  YS02001929           JUNCTION     0.06     1.78     9.47     0  01:49        0.81
  YS02006553           JUNCTION     0.63     2.19     8.47     0  01:48        2.19
  YS02006556           JUNCTION     0.60     2.39     8.70     0  01:48        2.39
  YS02006558           JUNCTION     0.64     2.50     8.77     0  01:48        2.50
  YS02006561           JUNCTION     0.11     1.12     7.78     0  01:48        0.89
  YS02163301           JUNCTION     0.37     2.03     8.55     0  01:48        2.03
  YS02163601           JUNCTION     0.47     2.08     8.48     0  01:48        2.08
  YS02164001           JUNCTION     0.40     2.10     8.56     0  01:48        2.10
  YSB1154              JUNCTION     0.36     2.10    11.16     0  01:48        2.10
  YSB1171              JUNCTION     0.50     1.95    10.85     0  01:47        1.95
  YSB1174              JUNCTION     0.31     1.95    11.06     0  01:48        1.95
  YSB6556              JUNCTION     0.26     1.76    10.93     0  01:47        1.73
  CC-1                 OUTFALL      0.00     0.00     0.00     0  00:00        0.00
  CC-2                 OUTFALL      0.00     0.00     0.00     0  00:00        0.00
  JK-1                 OUTFALL      0.00     0.00     0.00     0  00:00        0.00
  JK-2                 OUTFALL      0.00     0.00     0.00     0  00:00        0.00
  WSC                  OUTFALL      0.30     0.51     1.18     0  01:55        0.51
  CC-storage           STORAGE      0.81     1.52     7.02     0  02:17        1.52
  JK-storage           STORAGE      1.30     4.22     5.02     0  02:00        4.17
  XR-storage           STORAGE      7.98     9.26     7.26     0  08:00        9.26
  
  
  *******************
  Node Inflow Summary
  *******************
  
  -------------------------------------------------------------------------------------------------
                                  Maximum  Maximum                  Lateral       Total        Flow
                                  Lateral    Total  Time of Max      Inflow      Inflow     Balance
                                   Inflow   Inflow   Occurrence      Volume      Volume       Error
  Node                 Type           LPS      LPS  days hr:min    10^6 ltr    10^6 ltr     Percent
  -------------------------------------------------------------------------------------------------
  HS02004478           JUNCTION      0.00  2276.72     0  01:51           0        7.36      -0.015
  HS02004479           JUNCTION      0.00   545.41     0  01:48           0       0.709       0.192
  HS02004480           JUNCTION      0.00  2182.26     0  01:47           0        5.56       0.053
  HS02004770           JUNCTION   1197.24  1197.24     0  01:51        2.03        2.25       0.131
  HS02004777           JUNCTION      0.03   851.90     0  01:46    0.000864        1.66       0.314
  HS02004785           JUNCTION      0.15   895.59     0  01:46     0.00432        1.66       0.027
  HS02004788           JUNCTION    437.87  1004.54     0  01:46       0.798        2.46      -0.026
  HS02004792           JUNCTION   1426.30  2178.89     0  01:51        2.61        5.07       0.010
  HS02004799           JUNCTION    296.66  1748.68     0  01:47       0.448         4.9       0.059
  HS02004802           JUNCTION      0.00   959.49     0  01:52           0        1.82       0.221
  HS02004807           JUNCTION    374.08   957.75     0  01:52       0.548        1.86       0.212
  HS02004817           JUNCTION      0.60   600.16     0  01:52      0.0173        1.37       1.213
  HS02004824           JUNCTION    444.77   772.06     0  01:47       0.969        1.54       0.015
  HS02004830           JUNCTION      0.15   769.37     0  01:47     0.00432        0.75       0.141
  HS02004837           JUNCTION    340.28  1011.44     0  01:47       0.703        1.08      -0.037
  HS02004842           JUNCTION      0.00  1040.66     0  01:47           0       0.715       1.862
  HS02004848           JUNCTION    398.93  1294.11     0  01:47       0.922        1.48      -0.008
  HS02004852           JUNCTION      0.00  1192.57     0  01:48           0        1.33       0.016
  HS02004856           JUNCTION    150.92  1327.81     0  01:48       0.226        1.56       0.080
  HS02004862           JUNCTION    187.40  1486.31     0  01:48       0.393        1.95       0.013
  HS02004870           JUNCTION    202.14  1640.04     0  01:49       0.301        2.25       0.031
  HS02004876           JUNCTION    193.79  1704.31     0  01:49       0.311        2.56       0.004
  HS02004881           JUNCTION    111.57  1814.77     0  01:49       0.159        2.71      -0.051
  HS02004901           JUNCTION    295.41   503.01     0  01:53       0.455       0.669       0.258
  WS02001211           JUNCTION      7.35   240.12     0  01:48       0.212        5.44       0.611
  WS02001212           JUNCTION      0.00   236.62     0  01:46           0        5.41       0.290
  WS02001213           JUNCTION      0.00   255.11     0  01:51           0         5.4       0.330
  WS02003059           JUNCTION      0.00   276.84     0  01:44           0         5.4       0.595
  WS02003060           JUNCTION     16.53  1510.85     0  01:53       0.476        15.4       0.097
  WS02003066           JUNCTION      0.00  1286.68     0  01:51           0        9.58       0.016
  WS02003067           JUNCTION      0.00  1283.91     0  01:50           0        9.58       0.046
  WS02003069           JUNCTION      0.32  1494.70     0  01:53     0.00922        15.4       0.102
  WS02003072           JUNCTION      0.00  1489.85     0  01:54           0        15.4       0.137
  WS02003073           JUNCTION      1.82  1492.10     0  01:54      0.0524        15.4       0.143
  WS02004138           JUNCTION      0.00   380.00     0  00:00           0        5.25       0.054
  WS02004139           JUNCTION      0.32   190.60     0  00:29     0.00924        5.26       0.509
  WS02004401           JUNCTION      0.00  1282.25     0  01:50           0        9.69       0.108
  WS02004402           JUNCTION      0.00  1282.56     0  01:48           0        9.68       0.110
  WS02004403           JUNCTION      0.00  1291.65     0  01:48           0        9.67       0.107
  WS02004404           JUNCTION      0.16  1301.85     0  01:48     0.00467        9.66       0.094
  WS02004405           JUNCTION      0.04  1315.49     0  01:48      0.0011        9.65       0.129
  WS02004406           JUNCTION      0.00  1324.82     0  01:48           0        9.64       0.223
  WS02004407           JUNCTION      0.00  1327.13     0  01:48           0        9.62       0.016
  WS02004409           JUNCTION      0.00  1283.63     0  01:51           0        9.62       0.033
  WS02004410           JUNCTION      0.00  1283.84     0  01:51           0        9.61       0.053
  WS02004411           JUNCTION      0.00  1283.62     0  01:51           0        9.61       0.065
  WS02004412           JUNCTION      0.00  1283.49     0  01:51           0         9.6       0.084
  WS02004413           JUNCTION      0.00  1283.73     0  01:50           0        9.59       0.150
  WS02006109           JUNCTION      1.23  1275.89     0  01:51      0.0354        9.53       0.105
  WS02006110           JUNCTION      0.00  1137.27     0  01:48           0        9.35       0.088
  WS02006111           JUNCTION      0.00  1126.22     0  01:48           0        9.34       0.007
  WS02006112           JUNCTION    239.82  1308.21     0  01:48       0.374        9.71       0.197
  WS02006113           JUNCTION      0.00  1134.65     0  01:48           0        9.34       0.030
  WS02006115           JUNCTION      0.00  1299.29     0  01:48           0         9.7       0.072
  WS02006116           JUNCTION      0.00  1284.36     0  01:48           0        9.69       0.016
  WS02006228           JUNCTION      0.00  1274.80     0  01:50           0        9.49       0.052
  WS02006229           JUNCTION      0.00  2278.44     0  01:50           0        11.4       0.072
  WS02006230           JUNCTION     10.28  1012.72     0  01:50       0.296        5.91       0.143
  WS02006231           JUNCTION      0.00   560.03     0  03:45           0        4.89      -0.053
  WS02006232           JUNCTION      0.00   559.14     0  03:45           0        4.87       0.148
  WS02006234           JUNCTION      0.00   555.65     0  03:45           0        4.85      -0.148
  WS02006235           JUNCTION      0.00   547.26     0  03:45           0        4.85       0.178
  WS02006238           JUNCTION      0.00   429.71     0  03:46           0        4.59      -0.104
  WS02006239           JUNCTION      0.00   428.50     0  03:46           0        4.55      -0.226
  WS02006240           JUNCTION      0.00   431.32     0  01:39           0        4.53      -0.026
  WS02006242           JUNCTION      0.00   443.99     0  01:38           0        4.52      -0.024
  WS02006243           JUNCTION      0.00   471.44     0  01:39           0        4.22      -0.184
  WS02006245           JUNCTION      0.00   498.71     0  01:39           0        4.23       0.231
  WS02006247           JUNCTION      0.00   497.81     0  01:39           0        4.23      -0.042
  WS02006248           JUNCTION      0.00   509.56     0  01:37           0        4.45      -0.006
  WS02006249           JUNCTION      0.00  1341.27     0  01:49           0        7.28       0.078
  WS02006251           JUNCTION      0.08  1610.24     0  01:49     0.00222        7.37       0.011
  WS02006252           JUNCTION      0.00   565.63     0  01:50           0        4.87      -0.264
  WS02006253           JUNCTION     29.99  1607.96     0  01:49      0.0384        2.81       0.013
  WS02006256           JUNCTION      0.00   300.00     0  00:00           0       0.878      -2.274
  WS02006280           JUNCTION      0.00  2276.61     0  01:50           0        7.35       0.017
  WS02006284           JUNCTION      0.10  2277.23     0  01:51     0.00275        7.35      -0.001
  WS02006287           JUNCTION      0.00  2277.41     0  01:50           0        7.35       0.015
  WSF200               JUNCTION      0.00  1286.77     0  01:51           0        9.57       0.008
  YS02001580           JUNCTION      0.00   176.67     0  01:47           0     0.00433      -6.708
  YS02001583           JUNCTION      0.00   269.43     0  01:47           0      0.0147     -10.715
  YS02001586           JUNCTION    507.12   507.20     0  01:53        1.25        1.27       0.160
  YS02001590           JUNCTION      0.00   320.27     0  02:01           0        1.11      -0.035
  YS02001593           JUNCTION      0.00   318.33     0  02:01           0        1.11      -0.009
  YS02001596           JUNCTION      0.00   318.11     0  02:00           0        1.11      -0.016
  YS02001600           JUNCTION      0.00   318.03     0  01:52           0        1.11       0.008
  YS02001601           JUNCTION    966.35  1283.93     0  01:52        1.76        2.88       0.028
  YS02001602           JUNCTION      0.00   576.18     0  01:47           0        1.98       0.021
  YS02001605           JUNCTION      0.00   576.56     0  01:47           0        1.89       0.024
  YS02001607           JUNCTION      0.00   576.25     0  01:47           0        1.89       0.095
  YS02001610           JUNCTION      0.00   539.11     0  01:47           0         1.9       0.126
  YS02001613           JUNCTION      0.00   522.14     0  01:47           0        1.59       0.094
  YS02001616           JUNCTION      0.00   508.24     0  01:47           0        1.59       0.016
  YS02001619           JUNCTION    899.35   970.15     0  01:47           2        3.58      -0.006
  YS02001622           JUNCTION      0.00   930.25     0  01:47           0        3.56      -0.011
  YS02001625           JUNCTION      0.00  1027.14     0  01:54           0        3.59       0.245
  YS02001629           JUNCTION      0.00   898.55     0  01:48           0        3.02      -0.013
  YS02001633           JUNCTION    719.70  1424.96     0  01:48        1.28        4.25       0.079
  YS02001641           JUNCTION      0.00  1434.60     0  01:48           0        4.21       0.063
  YS02001644           JUNCTION    645.76  1935.83     0  01:48        1.11        5.31       0.060
  YS02001647           JUNCTION      0.00  1945.12     0  01:48           0        5.26       0.007
  YS02001649           JUNCTION      0.00  2191.15     0  01:49           0        6.26       0.003
  YS02001652           JUNCTION      0.00   812.80     0  01:51           0           1      -0.144
  YS02001655           JUNCTION      0.15   812.53     0  01:51     0.00443           1       0.015
  YS02001658           JUNCTION      0.00   812.35     0  01:51           0       0.999      -0.027
  YS02001661           JUNCTION      0.00   790.58     0  01:51           0       0.999      -0.007
  YS02001664           JUNCTION    632.01   632.01     0  01:51       0.999       0.999      -0.011
  YS02001745           JUNCTION    422.81   655.06     0  01:50       0.613       0.615       0.282
  YS02001748           JUNCTION      0.04   674.59     0  01:49      0.0013       0.618      -0.722
  YS02001751           JUNCTION      0.01   587.88     0  01:51    0.000317       0.628       0.126
  YS02001754           JUNCTION      0.26   590.16     0  01:51     0.00749       0.641      -0.261
  YS02001757           JUNCTION      0.00  3475.92     0  01:51           0        9.04       0.058
  YS02001759           JUNCTION    582.30  1410.31     0  01:50       0.844        2.14      -0.006
  YS02001762           JUNCTION      0.00   827.08     0  01:50           0         1.3       0.001
  YS02001765           JUNCTION      0.00   825.18     0  01:50           0         1.3       0.033
  YS02001767           JUNCTION      0.54   822.98     0  01:50      0.0154         1.3       0.007
  YS02001770           JUNCTION    815.94   815.94     0  01:51         1.3        1.34      -0.001
  YS02001774           JUNCTION      0.00   546.46     0  01:49           0      0.0761       1.865
  YS02001779           JUNCTION      0.01   558.11     0  01:49    0.000144      0.0321      -1.834
  YS02001783           JUNCTION      0.00  1158.26     0  01:49           0        3.41       0.009
  YS02001784           JUNCTION      1.06  1159.83     0  01:49      0.0305        3.44       0.014
  YS02001786           JUNCTION      0.06  1159.54     0  01:49     0.00162        3.44       0.017
  YS02001788           JUNCTION      0.07  1161.39     0  01:49     0.00204        3.44       0.009
  YS02001790           JUNCTION      0.15  1168.16     0  01:51     0.00446        3.45       0.027
  YS02001791           JUNCTION      0.00  1287.02     0  01:53           0        3.45      -0.030
  YS02001793           JUNCTION      0.00  1246.12     0  01:51           0        3.45       0.007
  YS02001882           JUNCTION      0.00   107.47     0  01:47           0      0.0129       3.818
  YS02001884           JUNCTION      0.00   146.37     0  01:47           0      0.0487       4.848
  YS02001887           JUNCTION    653.00   653.78     0  01:50       0.891       0.925       0.492
  YS02001890           JUNCTION      0.00   654.05     0  01:50           0       0.884       0.568
  YS02001895           JUNCTION      0.00   597.83     0  01:48           0       0.853       0.175
  YS02001898           JUNCTION      0.00   602.15     0  01:48           0       0.851       0.021
  YS02001901           JUNCTION      0.00   605.77     0  01:48           0       0.854       0.382
  YS02001904           JUNCTION      0.00   605.48     0  01:48           0       0.859       0.337
  YS02001907           JUNCTION      0.00  1653.01     0  01:50           0        2.82       0.638
  YS02001910           JUNCTION      0.00  1124.78     0  01:50           0        1.97       0.373
  YS02001915           JUNCTION    702.95  1124.63     0  01:50        1.23        2.02       0.086
  YS02001918           JUNCTION      0.00   719.57     0  01:48           0       0.817      -0.014
  YS02001920           JUNCTION      2.87   695.02     0  01:48      0.0827       0.792       0.079
  YS02001923           JUNCTION      0.04   956.12     0  01:48     0.00109       0.692      -0.183
  YS02001926           JUNCTION      0.05  1198.79     0  01:48      0.0015        0.67      -0.507
  YS02001929           JUNCTION    332.67  1114.40     0  01:49       0.648       0.654      -0.445
  YS02006553           JUNCTION      0.00   794.73     0  02:05           0        2.16       0.544
  YS02006556           JUNCTION      0.00   794.55     0  02:05           0        2.17       0.362
  YS02006558           JUNCTION    836.05  1174.65     0  01:48         1.3        3.44       0.106
  YS02006561           JUNCTION      0.00  1176.67     0  01:48           0        3.41      -0.006
  YS02163301           JUNCTION      0.00   892.16     0  01:48           0        3.01       0.053
  YS02163601           JUNCTION      0.11  1423.35     0  01:48     0.00317         4.2       0.113
  YS02164001           JUNCTION      0.00  1421.03     0  01:48           0         4.2       0.046
  YSB1154              JUNCTION    336.69   336.69     0  01:51       0.536       0.536       0.281
  YSB1171              JUNCTION      0.00   637.16     0  01:50           0       0.951       0.684
  YSB1174              JUNCTION    305.76   305.76     0  01:50       0.407       0.407       0.328
  YSB6556              JUNCTION      0.00   336.73     0  01:51           0       0.537       0.248
  CC-1                 OUTFALL       0.00   683.00     0  00:00           0        3.25       0.000
  CC-2                 OUTFALL       0.00   683.00     0  00:00           0         1.8       0.000
  JK-1                 OUTFALL       0.00  1000.00     0  00:00           0        1.61       0.000
  JK-2                 OUTFALL       0.00  1000.00     0  00:00           0        1.09       0.000
  WSC                  OUTFALL       0.00  1491.98     0  01:55           0        15.4       0.000
  CC-storage           STORAGE       0.00  3473.23     0  01:51           0        11.3      -0.277
  JK-storage           STORAGE       0.00  1246.80     0  01:51           0         3.6      -0.480
  XR-storage           STORAGE     200.00   200.00     0  00:00        5.76        6.36       0.001
  
  
  **********************
  Node Surcharge Summary
  **********************
  
  Surcharging occurs when water rises above the top of the highest conduit.
  ---------------------------------------------------------------------
                                               Max. Height   Min. Depth
                                   Hours       Above Crown    Below Rim
  Node                 Type      Surcharged         Meters       Meters
  ---------------------------------------------------------------------
  HS02004478           JUNCTION        0.38          0.645        0.295
  HS02004479           JUNCTION        0.50          0.877        0.173
  HS02004480           JUNCTION        0.53          1.100        0.000
  HS02004770           JUNCTION        0.46          0.720        0.000
  HS02004777           JUNCTION        0.46          0.780        0.000
  HS02004785           JUNCTION        0.41          0.790        0.000
  HS02004788           JUNCTION        0.40          0.720        0.000
  HS02004792           JUNCTION        0.50          0.900        0.000
  HS02004799           JUNCTION        0.60          1.060        0.000
  HS02004802           JUNCTION        0.54          1.051        0.159
  HS02004807           JUNCTION        0.52          1.220        0.000
  HS02004817           JUNCTION        1.02          1.740        0.000
  HS02004824           JUNCTION        0.40          1.310        0.000
  HS02004830           JUNCTION        0.38          1.330        0.000
  HS02004837           JUNCTION        0.34          1.340        0.000
  HS02004842           JUNCTION        0.46          1.520        0.000
  HS02004848           JUNCTION        0.32          1.239        0.131
  HS02004852           JUNCTION        0.34          1.295        0.125
  HS02004856           JUNCTION        0.33          1.274        0.026
  HS02004862           JUNCTION        0.36          1.300        0.000
  HS02004870           JUNCTION        0.37          1.400        0.000
  HS02004876           JUNCTION        0.44          1.560        0.000
  HS02004881           JUNCTION        0.42          1.450        0.000
  HS02004901           JUNCTION        0.46          0.720        0.000
  WS02004401           JUNCTION        1.51          1.660        0.000
  WS02004402           JUNCTION        1.55          1.682        0.058
  WS02004403           JUNCTION        1.55          1.498        0.532
  WS02004404           JUNCTION        1.69          1.357        1.423
  WS02004405           JUNCTION        1.66          1.107        1.693
  WS02004406           JUNCTION        1.62          0.916        1.534
  WS02004409           JUNCTION        0.78          0.658        1.702
  WS02004410           JUNCTION        0.77          0.281        2.259
  WS02004411           JUNCTION        0.70          0.190        2.340
  WS02004412           JUNCTION        0.62          0.095        2.215
  WS02004413           JUNCTION        1.11          0.139        2.061
  WS02006109           JUNCTION        2.38          1.820        0.000
  WS02006110           JUNCTION        1.96          1.690        0.160
  WS02006111           JUNCTION        1.03          1.452        0.418
  WS02006112           JUNCTION        2.19          1.680        0.000
  WS02006113           JUNCTION        1.08          1.468        0.462
  WS02006115           JUNCTION        1.37          1.790        0.460
  WS02006116           JUNCTION        1.40          1.815        0.475
  WS02006228           JUNCTION        2.36          2.199        0.001
  WS02006229           JUNCTION        0.77          1.035        0.035
  WS02006230           JUNCTION        1.72          1.570        0.000
  WS02006231           JUNCTION        1.98          1.496        0.034
  WS02006232           JUNCTION        2.33          1.480        0.000
  WS02006234           JUNCTION        2.16          1.240        0.000
  WS02006235           JUNCTION        2.19          1.290        0.000
  WS02006238           JUNCTION        2.26          1.354        0.076
  WS02006239           JUNCTION        2.20          1.263        0.027
  WS02006240           JUNCTION        2.21          1.335        0.055
  WS02006242           JUNCTION        2.34          0.820        0.000
  WS02006243           JUNCTION        2.22          0.770        0.000
  WS02006245           JUNCTION        2.22          0.756        0.094
  WS02006247           JUNCTION        2.26          0.589        0.171
  WS02006248           JUNCTION        2.21          0.380        0.000
  WS02006249           JUNCTION        2.25          0.390        0.000
  WS02006251           JUNCTION        2.14          1.180        0.000
  WS02006252           JUNCTION        2.82          1.100        0.000
  WS02006253           JUNCTION        2.16          2.269        0.211
  WS02006256           JUNCTION        7.03          2.050        0.000
  WS02006280           JUNCTION        0.62          0.685        0.095
  WS02006284           JUNCTION        0.55          0.653        0.147
  WS02006287           JUNCTION        0.47          0.719        0.171
  YS02001580           JUNCTION        0.46          0.450        0.000
  YS02001583           JUNCTION        0.46          0.500        0.000
  YS02001586           JUNCTION        0.59          0.510        0.000
  YS02001590           JUNCTION        0.66          0.750        0.000
  YS02001593           JUNCTION        0.66          0.717        0.123
  YS02001596           JUNCTION        0.75          0.957        0.113
  YS02001600           JUNCTION        0.88          1.190        0.000
  YS02001601           JUNCTION        1.25          1.440        0.000
  YS02001602           JUNCTION        1.11          1.270        0.000
  YS02001605           JUNCTION        1.06          1.180        0.000
  YS02001607           JUNCTION        0.63          0.680        0.000
  YS02001610           JUNCTION        0.65          0.680        0.000
  YS02001613           JUNCTION        0.62          0.687        0.013
  YS02001616           JUNCTION        0.59          0.610        0.000
  YS02001619           JUNCTION        0.58          0.610        0.000
  YS02001622           JUNCTION        0.57          0.620        0.000
  YS02001625           JUNCTION        0.73          0.780        0.000
  YS02001629           JUNCTION        0.53          0.470        0.000
  YS02001633           JUNCTION        0.75          1.060        0.000
  YS02001641           JUNCTION        0.70          1.100        0.000
  YS02001644           JUNCTION        0.67          0.920        0.000
  YS02001647           JUNCTION        0.48          0.788        0.112
  YS02001649           JUNCTION        0.59          0.982        0.068
  YS02001652           JUNCTION        0.41          0.858        0.272
  YS02001655           JUNCTION        0.26          0.975        0.225
  YS02001658           JUNCTION        0.09          0.835        0.465
  YS02001661           JUNCTION        0.01          0.323        1.067
  YS02001748           JUNCTION        0.01          0.751        0.439
  YS02001751           JUNCTION        0.15          1.200        0.000
  YS02001754           JUNCTION        0.31          0.971        0.179
  YS02001757           JUNCTION        0.65          1.078        0.132
  YS02001759           JUNCTION        0.55          1.015        0.195
  YS02001762           JUNCTION        0.52          1.001        0.149
  YS02001765           JUNCTION        0.48          0.956        0.144
  YS02001767           JUNCTION        0.44          0.932        0.098
  YS02001770           JUNCTION        0.42          0.920        0.000
  YS02001774           JUNCTION        0.50          1.011        0.039
  YS02001779           JUNCTION        0.31          0.680        0.000
  YS02001783           JUNCTION        0.44          0.557        1.043
  YS02001784           JUNCTION        0.42          0.404        1.086
  YS02001786           JUNCTION        0.33          0.165        1.265
  YS02001882           JUNCTION        0.39          0.830        0.000
  YS02001884           JUNCTION        0.40          0.870        0.000
  YS02001887           JUNCTION        0.43          0.950        0.000
  YS02001890           JUNCTION        0.44          0.760        0.000
  YS02001895           JUNCTION        0.38          0.640        0.110
  YS02001898           JUNCTION        0.38          0.653        0.087
  YS02001901           JUNCTION        0.42          0.776        0.094
  YS02001904           JUNCTION        0.41          0.695        0.155
  YS02001907           JUNCTION        0.61          0.950        0.000
  YS02001910           JUNCTION        0.47          1.013        0.087
  YS02001915           JUNCTION        0.39          0.976        0.024
  YS02001918           JUNCTION        0.32          0.810        0.000
  YS02001920           JUNCTION        0.33          1.097        0.043
  YS02001923           JUNCTION        0.01          0.820        0.000
  YS02001926           JUNCTION        0.02          0.900        0.000
  YS02001929           JUNCTION        0.01          0.780        0.000
  YS02006553           JUNCTION        0.62          1.190        0.000
  YS02006556           JUNCTION        0.54          1.350        0.000
  YS02006558           JUNCTION        0.53          1.400        0.000
  YS02006561           JUNCTION        0.28          0.322        0.828
  YS02163301           JUNCTION        0.73          1.030        0.000
  YS02163601           JUNCTION        0.77          1.080        0.000
  YS02164001           JUNCTION        0.70          1.100        0.000
  YSB1154              JUNCTION        0.70          1.400        0.000
  YSB1171              JUNCTION        0.71          1.100        0.000
  YSB1174              JUNCTION        0.63          1.250        0.000
  YSB6556              JUNCTION        0.58          1.059        0.041
  
  
  *********************
  Node Flooding Summary
  *********************
  
  Flooding refers to all water that overflows a node, whether it ponds or not.
  --------------------------------------------------------------------------
                                                             Total   Maximum
                                 Maximum   Time of Max       Flood    Ponded
                        Hours       Rate    Occurrence      Volume     Depth
  Node                 Flooded       LPS   days hr:min    10^6 ltr    Meters
  --------------------------------------------------------------------------
  HS02004480              0.01    102.04      0  01:48       0.000     0.000
  HS02004770              0.26    745.74      0  01:50       0.373     0.000
  HS02004777              0.01     55.79      0  01:47       0.001     0.000
  HS02004785              0.01     46.04      0  01:46       0.000     0.000
  HS02004788              0.01    560.39      0  01:46       0.006     0.000
  HS02004792              0.27   1035.96      0  01:51       0.612     0.000
  HS02004799              0.11    178.96      0  01:50       0.032     0.000
  HS02004807              0.01     17.06      0  01:47       0.000     0.000
  HS02004817              0.01     28.60      0  01:47       0.000     0.000
  HS02004824              0.01     27.25      0  01:47       0.000     0.000
  HS02004830              0.01     24.18      0  01:47       0.000     0.000
  HS02004837              0.01    300.19      0  01:47       0.000     0.000
  HS02004842              0.01      5.18      0  01:49       0.000     0.000
  HS02004862              0.01    134.18      0  01:49       0.001     0.000
  HS02004870              0.01     93.84      0  01:49       0.000     0.000
  HS02004876              0.01     81.60      0  01:49       0.001     0.000
  HS02004881              0.01    644.03      0  01:49       0.002     0.000
  HS02004901              0.33    503.01      0  01:53       0.445     0.000
  WS02004401              0.01      2.05      0  01:43       0.000     0.000
  WS02006109              0.32    234.52      0  01:50       0.164     0.000
  WS02006112              0.01     15.61      0  01:43       0.000     0.000
  WS02006230              0.56    559.70      0  01:50       0.739     0.000
  WS02006232              0.14     22.50      0  01:39       0.000     0.000
  WS02006234              0.59    128.48      0  01:47       0.193     0.000
  WS02006235              0.01     17.59      0  02:48       0.000     0.000
  WS02006242              0.73    138.10      0  02:01       0.299     0.000
  WS02006243              0.01     35.94      0  01:39       0.000     0.000
  WS02006248              1.06    349.92      0  01:46       0.990     0.000
  WS02006249              1.93   1275.46      0  01:49       3.599     0.000
  WS02006251              0.01    141.44      0  01:49       0.001     0.000
  WS02006252              0.36    563.93      0  01:50       0.321     0.000
  WS02006256              0.81    294.22      0  02:10       0.483     0.000
  YS02001580              0.01    115.64      0  01:47       0.001     0.000
  YS02001583              0.01    170.64      0  01:47       0.000     0.000
  YS02001586              0.35    189.80      0  01:53       0.141     0.000
  YS02001590              0.01    129.55      0  01:45       0.000     0.000
  YS02001600              0.01      2.06      0  01:46       0.000     0.000
  YS02001601              0.53    886.01      0  01:52       0.900     0.000
  YS02001602              0.43     61.98      0  01:57       0.088     0.000
  YS02001605              0.01      7.92      0  01:48       0.000     0.000
  YS02001607              0.01      0.42      0  02:01       0.000     0.000
  YS02001610              0.38    397.44      0  01:54       0.322     0.000
  YS02001616              0.01     56.75      0  01:47       0.000     0.000
  YS02001619              0.01    104.07      0  01:47       0.001     0.000
  YS02001622              0.01    196.55      0  01:47       0.000     0.000
  YS02001625              0.35   1026.89      0  01:54       0.604     0.000
  YS02001629              0.06    260.85      0  01:47       0.021     0.000
  YS02001633              0.01      3.43      0  01:48       0.000     0.000
  YS02001641              0.01      2.34      0  01:48       0.000     0.000
  YS02001644              0.06    401.93      0  01:51       0.043     0.000
  YS02001751              0.01    239.40      0  01:50       0.000     0.000
  YS02001770              0.01     20.24      0  01:50       0.000     0.000
  YS02001779              0.04    508.81      0  01:49       0.014     0.000
  YS02001882              0.01     65.63      0  01:47       0.000     0.000
  YS02001884              0.01      3.66      0  01:48       0.000     0.000
  YS02001887              0.01      4.06      0  01:48       0.000     0.000
  YS02001890              0.09    126.15      0  01:50       0.026     0.000
  YS02001907              0.26   1321.57      0  01:50       0.645     0.000
  YS02001918              0.01    210.13      0  01:49       0.003     0.000
  YS02001923              0.01    175.43      0  01:49       0.001     0.000
  YS02001926              0.01    422.78      0  01:49       0.003     0.000
  YS02001929              0.01    914.57      0  01:49       0.004     0.000
  YS02006553              0.01      6.08      0  01:48       0.000     0.000
  YS02006556              0.01     20.82      0  01:48       0.000     0.000
  YS02006558              0.01     12.16      0  01:48       0.000     0.000
  YS02163301              0.01      1.46      0  01:48       0.000     0.000
  YS02163601              0.01      2.37      0  01:48       0.000     0.000
  YS02164001              0.01      4.19      0  01:48       0.000     0.000
  YSB1154                 0.01      0.75      0  01:48       0.000     0.000
  YSB1171                 0.19    621.94      0  01:52       0.245     0.000
  YSB1174                 0.01      0.67      0  01:48       0.000     0.000
  
  
  **********************
  Storage Volume Summary
  **********************
  
  --------------------------------------------------------------------------------------------------
                         Average     Avg  Evap Exfil       Maximum     Max    Time of Max    Maximum
                          Volume    Pcnt  Pcnt  Pcnt        Volume    Pcnt     Occurrence    Outflow
  Storage Unit           1000 m3    Full  Loss  Loss       1000 m3    Full    days hr:min        LPS
  --------------------------------------------------------------------------------------------------
  CC-storage               2.245      35     0     0         4.248      66       0  02:17    1783.53
  JK-storage               0.065      22     0     0         0.212      73       0  02:00    2300.00
  XR-storage               0.958      66     0     0         1.111      77       0  08:00     380.00
  
  
  ***********************
  Outfall Loading Summary
  ***********************
  
  -----------------------------------------------------------
                         Flow       Avg       Max       Total
                         Freq      Flow      Flow      Volume
  Outfall Node           Pcnt       LPS       LPS    10^6 ltr
  -----------------------------------------------------------
  CC-1                  18.83    683.00    683.00       3.252
  CC-2                   9.71    683.00    683.00       1.803
  JK-1                   6.15   1000.00   1000.00       1.608
  JK-2                   4.08   1000.00   1000.00       1.091
  WSC                   99.96    612.94   1491.98      15.379
  -----------------------------------------------------------
  System                27.75   3978.94   4817.46      23.132
  
  
  ********************
  Link Flow Summary
  ********************
  
  -----------------------------------------------------------------------------
                                 Maximum  Time of Max   Maximum    Max/    Max/
                                  |Flow|   Occurrence   |Veloc|    Full    Full
  Link                 Type          LPS  days hr:min     m/sec    Flow   Depth
  -----------------------------------------------------------------------------
  1                    CONDUIT   1491.98     0  01:55      3.69    0.52    0.51
  HS02004478WS02006287 CONDUIT   2277.41     0  01:50      2.57    0.64    1.00
  HS02004479HS02004480 CONDUIT    543.90     0  01:48      0.78    0.53    1.00
  HS02004480HS02004478 CONDUIT   2188.14     0  01:47      3.13    9.22    1.00
  HS02004770HS02004777 CONDUIT    851.87     0  01:46      1.22    1.56    1.00
  HS02004777HS02004785 CONDUIT    895.44     0  01:46      1.40    1.10    1.00
  HS02004785HS02004788 CONDUIT    757.74     0  01:46      1.34    5.71    1.00
  HS02004788HS02004792 CONDUIT    810.60     0  02:07      1.43    0.54    1.00
  HS02004792HS02004799 CONDUIT   1541.71     0  01:47      2.20    0.94    1.00
  HS02004799HS02004480 CONDUIT   1744.83     0  01:47      2.49    2.20    1.00
  HS02004802HS02004478 CONDUIT    960.97     0  01:52      1.37    0.85    1.00
  HS02004807HS02004802 CONDUIT    959.49     0  01:52      1.37    1.83    1.00
  HS02004817HS02004807 CONDUIT    600.52     0  01:52      0.86    0.36    1.00
  HS02004817HS02004824 CONDUIT    599.56     0  01:52      0.86    0.27    1.00
  HS02004824HS02004830 CONDUIT    769.22     0  01:47      1.10    1.01    1.00
  HS02004830HS02004837 CONDUIT    772.35     0  01:47      1.17    0.77    1.00
  HS02004837HS02004842 CONDUIT   1040.66     0  01:47      1.49    0.62    1.00
  HS02004842HS02004848 CONDUIT   1042.61     0  01:47      1.68    0.61    1.00
  HS02004848HS02004852 CONDUIT   1192.57     0  01:48      1.76    1.34    1.00
  HS02004852HS02004856 CONDUIT   1196.24     0  01:48      1.71    1.37    1.00
  HS02004856HS02004862 CONDUIT   1334.83     0  01:48      1.96    1.33    1.00
  HS02004862HS02004870 CONDUIT   1451.86     0  01:49      2.21    1.57    1.00
  HS02004870HS02004876 CONDUIT   1526.40     0  01:49      2.18    1.01    1.00
  HS02004876HS02004881 CONDUIT   1707.34     0  01:49      2.62   18.16    1.00
  HS02004881HS02006253 CONDUIT   1578.00     0  01:49      2.29    0.31    1.00
  HS02004901HS02004770 CONDUIT    265.67     0  02:02      0.38    1.00    1.00
  WS02001211WS02001212 CONDUIT    219.45     0  01:50      0.54    0.17    0.70
  WS02001212WS02001213 CONDUIT    255.11     0  01:51      1.04    0.39    0.56
  WS02001213WS02003059 CONDUIT    227.08     0  01:52      0.47    0.37    0.90
  WS02003059WS02003060 CONDUIT    228.97     0  02:33      0.66    0.15    0.81
  WS02003060WS02003069 CONDUIT   1494.38     0  01:53      2.09    0.59    0.61
  WS02003066WSF200     CONDUIT   1286.77     0  01:51      3.44    0.22    0.38
  WS02003067WS02003066 CONDUIT   1286.68     0  01:51      2.00    0.41    0.56
  WS02003069WS02003072 CONDUIT   1489.85     0  01:54      1.89    0.72    0.66
  WS02003072WS02003073 CONDUIT   1490.27     0  01:54      2.04    3.22    0.61
  WS02004138WS02004139 CONDUIT    190.28     0  00:29      2.17    0.04    0.42
  WS02004139WS02001211 CONDUIT    232.77     0  01:48      0.54    0.29    0.60
  WS02004401WS02004402 CONDUIT   1282.56     0  01:48      1.63    1.54    1.00
  WS02004402WS02004403 CONDUIT   1291.65     0  01:48      1.64    1.86    1.00
  WS02004403WS02004404 CONDUIT   1301.68     0  01:48      1.66    0.94    1.00
  WS02004404WS02004405 CONDUIT   1315.45     0  01:48      1.67   12.89    1.00
  WS02004405WS02004406 CONDUIT   1324.82     0  01:48      1.69    2.61    1.00
  WS02004406WS02004407 CONDUIT   1327.13     0  01:48      2.03    0.59    0.95
  WS02004407WS02004409 CONDUIT   1283.63     0  01:51      2.07    0.45    0.95
  WS02004409WS02004410 CONDUIT   1283.84     0  01:51      1.63    1.66    1.00
  WS02004410WS02004411 CONDUIT   1283.62     0  01:51      1.63    1.75    1.00
  WS02004411WS02004412 CONDUIT   1283.49     0  01:51      1.63    1.82    1.00
  WS02004412WS02004413 CONDUIT   1283.73     0  01:50      1.63    0.86    1.00
  WS02004413WS02003067 CONDUIT   1283.91     0  01:50      1.99    0.55    0.76
  WS02006109WS02006110 CONDUIT   1137.27     0  01:48      2.26    2.19    1.00
  WS02006110WS02006113 CONDUIT   1134.65     0  01:48      2.26    1.03    1.00
  WS02006111WS02006112 CONDUIT   1123.03     0  02:06      2.23    0.53    1.00
  WS02006112WS02006115 CONDUIT   1299.29     0  01:48      1.65    0.77    1.00
  WS02006113WS02006111 CONDUIT   1126.22     0  01:48      2.73    1.35    1.00
  WS02006115WS02006116 CONDUIT   1284.36     0  01:48      1.64    1.65    1.00
  WS02006116WS02004401 CONDUIT   1282.25     0  01:50      1.63    1.77    1.00
  WS02006228WS02006109 CONDUIT   1274.66     0  01:51      2.54    5.57    1.00
  WS02006229WS02006228 CONDUIT   1274.80     0  01:50      2.54    4.22    1.00
  WS02006230WS02006229 CONDUIT   1002.44     0  01:50      2.60   22.31    1.00
  WS02006231WS02006230 CONDUIT    560.68     0  03:45      1.46    8.50    1.00
  WS02006232WS02006231 CONDUIT    560.03     0  03:45      1.46    1.17    1.00
  WS02006234WS02006232 CONDUIT    559.14     0  03:45      1.45    1.13    1.00
  WS02006235WS02006234 CONDUIT    555.65     0  03:45      1.44    5.86    1.00
  WS02006238WS02006235 CONDUIT    427.15     0  03:42      1.48    0.95    1.00
  WS02006239WS02006238 CONDUIT    429.71     0  03:46      1.12    1.38    1.00
  WS02006240WS02006239 CONDUIT    428.50     0  03:46      1.26    1.35    1.00
  WS02006242WS02006240 CONDUIT    431.32     0  01:39      1.17    1.71    1.00
  WS02006243WS02006242 CONDUIT    443.99     0  01:38      1.34    0.95    1.00
  WS02006245WS02006243 CONDUIT    471.44     0  01:39      1.46    1.39    1.00
  WS02006247WS02006245 CONDUIT    498.71     0  01:39      1.50    3.95    1.00
  WS02006248WS02006247 CONDUIT    497.81     0  01:39      1.41    1.08    1.00
  WS02006249WS02006248 CONDUIT    509.56     0  01:37      1.44    2.79    1.00
  WS02006251WS02006249 CONDUIT   1341.27     0  01:49      3.49    3.87    1.00
  WS02006252WS02006251 CONDUIT    406.06     0  01:39     18.70    1.49    1.00
  WS02006253WS02006251 CONDUIT   1610.16     0  01:49      4.18    4.83    1.00
  WS02006256WS02006235 CONDUIT    288.93     0  00:00      4.23    3.06    1.00
  WS02006280WS02006229 CONDUIT   2278.44     0  01:50      4.19    0.49    1.00
  WS02006284WS02006280 CONDUIT   2276.61     0  01:50      2.96    0.95    1.00
  WS02006287WS02006284 CONDUIT   2277.14     0  01:51      2.90    1.06    1.00
  WSF200WS02003060     CONDUIT   1292.34     0  01:51      2.67    0.29    0.50
  YS02001580YS02001583 CONDUIT    176.67     0  01:47      0.90    0.68    1.00
  YS02001583YS02001586 CONDUIT    211.11     0  01:47      0.95    0.32    1.00
  YS02001586YS02001590 CONDUIT    320.27     0  02:01      1.28    0.56    1.00
  YS02001590YS02001593 CONDUIT    318.33     0  02:01      1.13    2.00    1.00
  YS02001593YS02001596 CONDUIT    318.11     0  02:00      1.73    0.50    1.00
  YS02001596YS02001600 CONDUIT    318.03     0  01:52      1.20    0.62    1.00
  YS02001600YS02001601 CONDUIT    318.38     0  02:01      1.13    0.55    1.00
  YS02001601YS02001602 CONDUIT    576.18     0  01:47      2.04    2.08    1.00
  YS02001602YS02001605 CONDUIT    576.56     0  01:47      2.04   12.20    1.00
  YS02001605YS02001607 CONDUIT    576.25     0  01:47      2.04    3.16    1.00
  YS02001607YS02001610 CONDUIT    539.11     0  01:47      0.72    0.51    1.00
  YS02001610YS02001613 CONDUIT    522.14     0  01:47      0.68    0.60    1.00
  YS02001613YS02001616 CONDUIT    508.24     0  01:47      0.67    0.44    1.00
  YS02001616YS02001619 CONDUIT    482.52     0  01:47      0.67    0.84    1.00
  YS02001619YS02001622 CONDUIT    930.25     0  01:47      1.27    1.37    1.00
  YS02001622YS02001625 CONDUIT    927.85     0  01:47      1.18    0.50    1.00
  YS02001625YS02001629 CONDUIT    898.55     0  01:48      1.14    0.43    1.00
  YS02001629YS02163301 CONDUIT    892.16     0  01:48      1.14    1.10    1.00
  YS02001633YS02163601 CONDUIT   1423.24     0  01:48      1.81    1.49    1.00
  YS02001641YS02001644 CONDUIT   1462.84     0  01:48      1.86    4.73    1.00
  YS02001644YS02001647 CONDUIT   1945.12     0  01:48      2.50    1.14    1.00
  YS02001647YS02001649 CONDUIT   1942.40     0  01:48      2.47    1.03    1.00
  YS02001649YS02001757 CONDUIT   2192.71     0  01:49      2.79    1.33    1.00
  YS02001652YS02001649 CONDUIT    813.59     0  01:51      1.04    0.40    1.00
  YS02001655YS02001652 CONDUIT    812.80     0  01:51      1.48    0.39    1.00
  YS02001658YS02001655 CONDUIT    812.37     0  01:51      2.06    0.34    1.00
  YS02001661YS02001658 CONDUIT    812.35     0  01:51      2.46    0.32    1.00
  YS02001664YS02001661 CONDUIT    790.58     0  01:51      2.48    0.25    0.82
  YS02001745YS02001748 CONDUIT    589.44     0  01:50      2.40    0.23    0.99
  YS02001748YS02001751 CONDUIT    587.87     0  01:51      1.92    0.30    1.00
  YS02001751YS02001754 CONDUIT    589.90     0  01:51      1.58    0.28    1.00
  YS02001754YS02001757 CONDUIT    591.63     0  01:51      0.75    0.24    1.00
  YS02001757CaochengTiaoxuchi CONDUIT   3473.23     0  01:51      4.53    1.50    1.00
  YS02001759YS02001757 CONDUIT   1409.09     0  01:50      1.79    1.00    1.00
  YS02001762YS02001759 CONDUIT    829.12     0  01:50      1.06    0.96    1.00
  YS02001765YS02001762 CONDUIT    827.08     0  01:50      1.05    0.78    1.00
  YS02001767YS02001765 CONDUIT    825.18     0  01:50      1.05    1.04    1.00
  YS02001770YS02001767 CONDUIT    822.45     0  01:50      1.05    3.26    1.00
  YS02001774YS02001770 CONDUIT    546.46     0  01:49      0.70    0.35    1.00
  YS02001779YS02001774 CONDUIT    558.10     0  01:49      0.71    0.28    1.00
  YS02001783YS02001784 CONDUIT   1158.77     0  01:49      2.31    1.60    1.00
  YS02001784YS02001785 CONDUIT   1159.48     0  01:49      2.31    2.70    1.00
  YS02001786YS02001788 CONDUIT   1161.32     0  01:49      2.48    2.24    0.89
  YS02001788YS02001790 CONDUIT   1168.01     0  01:51      2.70    0.86    0.84
  YS02001790YS02001791 CONDUIT   1287.02     0  01:53      3.42    1.40    0.70
  YS02001791YS02001793 CONDUIT   1246.12     0  01:51      6.78    0.54    0.43
  YS02001793JiankangQianchi CONDUIT   1246.80     0  01:51      2.50    0.10    0.64
  YS02001882YS02001884 CONDUIT    107.47     0  01:47      0.14    0.12    1.00
  YS02001884YS02001887 CONDUIT    146.37     0  01:47      0.19    0.19    1.00
  YS02001887YS02001890 CONDUIT    654.05     0  01:50      0.83    1.12    1.00
  YS02001890YS02001895 CONDUIT    597.83     0  01:48      0.76    0.28    1.00
  YS02001895YS02001898 CONDUIT    602.15     0  01:48      0.77    1.04    1.00
  YS02001898YS02001901 CONDUIT    605.77     0  01:48      0.77    0.39    1.00
  YS02001901YS02001904 CONDUIT    605.48     0  01:48      0.77    0.94    1.00
  YS02001904YS02001907 CONDUIT    604.30     0  01:48      0.77    0.21    1.00
  YS02001907YS02006553 CONDUIT    794.73     0  02:05      0.88    0.93    1.00
  YS02001910YS02001907 CONDUIT   1124.85     0  01:50      1.43    0.63    1.00
  YS02001915YS02001910 CONDUIT   1124.78     0  01:50      1.43    0.56    1.00
  YS02001918YS02001915 CONDUIT    719.57     0  01:48      0.93    0.40    1.00
  YS02001920YS02001918 CONDUIT    692.15     0  01:48      0.88    0.67    1.00
  YS02001923YS02001920 CONDUIT    715.65     0  01:48      0.99    0.32    1.00
  YS02001926YS02001923 CONDUIT    959.37     0  01:48      1.41    1.37    1.00
  YS02001929YS02001926 CONDUIT    836.74     0  01:49      1.23    0.40    1.00
  YS02006553YS02006556 CONDUIT    794.55     0  02:05      1.01    0.68    1.00
  YS02006556YS02006558 CONDUIT    795.38     0  02:05      1.01    0.63    1.00
  YS02006558YS02006561 CONDUIT   1176.67     0  01:48      4.24    2.60    1.00
  YS02006561YS02001783 CONDUIT   1158.26     0  01:49      2.30    0.60    1.00
  YS02163301YS02001633 CONDUIT    887.46     0  01:48      1.13    0.83    1.00
  YS02163601YS02164001 CONDUIT   1421.03     0  01:48      1.81    1.26    1.00
  YS02164001YS02001641 CONDUIT   1434.60     0  01:48      1.83    1.96    1.00
  YSB1154YSB6556       CONDUIT    336.73     0  01:51      0.87    0.61    1.00
  YSB1171HS02004479    CONDUIT    545.41     0  01:48      1.09    0.36    1.00
  YSB1174YSB1171       CONDUIT    306.02     0  01:50      0.80    0.47    1.00
  YSB6556YSB1171       CONDUIT    336.96     0  01:51      0.88    0.35    1.00
  CC-R1                PUMP       683.00     0  00:00              1.00
  CC-R2                PUMP       683.00     0  00:00              1.00
  CC-S1                PUMP       200.00     0  00:00              1.00
  CC-S2                PUMP       200.00     0  00:00              1.00
  JK-R1                PUMP      1000.00     0  00:00              1.00
  JK-R2                PUMP      1000.00     0  00:00              1.00
  JK-S                 PUMP       300.00     0  00:00              1.00
  XR-1                 PUMP        95.00     0  00:00              1.00
  XR-2                 PUMP        95.00     0  00:00              1.00
  XR-3                 PUMP        95.00     0  00:00              1.00
  XR-4                 PUMP        95.00     0  00:00              1.00
  
  
  ***************************
  Flow Classification Summary
  ***************************
  
  -------------------------------------------------------------------------------------
                      Adjusted    ---------- Fraction of Time in Flow Class ---------- 
                       /Actual         Up    Down  Sub   Sup   Up    Down  Norm  Inlet 
  Conduit               Length    Dry  Dry   Dry   Crit  Crit  Crit  Crit  Ltd   Ctrl  
  -------------------------------------------------------------------------------------
  1                       1.00   0.00  0.00  0.00  0.00  1.00  0.00  0.00  0.47  0.00
  HS02004478WS02006287    1.00   0.09  0.00  0.00  0.72  0.18  0.00  0.00  0.61  0.00
  HS02004479HS02004480    1.00   0.05  0.00  0.00  0.95  0.00  0.00  0.00  0.12  0.00
  HS02004480HS02004478    1.00   0.08  0.00  0.00  0.68  0.00  0.00  0.24  0.00  0.00
  HS02004770HS02004777    1.00   0.00  0.08  0.00  0.92  0.00  0.00  0.00  0.03  0.00
  HS02004777HS02004785    1.00   0.00  0.00  0.00  1.00  0.00  0.00  0.00  0.13  0.00
  HS02004785HS02004788    1.00   0.00  0.00  0.00  1.00  0.00  0.00  0.00  0.00  0.00
  HS02004788HS02004792    1.00   0.00  0.00  0.00  0.99  0.01  0.00  0.00  0.91  0.00
  HS02004792HS02004799    1.00   0.00  0.00  0.00  0.99  0.01  0.00  0.00  0.88  0.00
  HS02004799HS02004480    1.00   0.00  0.04  0.00  0.91  0.00  0.05  0.00  0.00  0.00
  HS02004802HS02004478    1.00   0.08  0.00  0.00  0.92  0.00  0.00  0.00  0.03  0.00
  HS02004807HS02004802    1.00   0.08  0.00  0.00  0.91  0.00  0.00  0.01  0.00  0.00
  HS02004817HS02004807    1.00   0.00  0.08  0.00  0.92  0.00  0.00  0.00  0.01  0.00
  HS02004817HS02004824    1.00   0.00  0.00  0.00  1.00  0.00  0.00  0.00  0.84  0.00
  HS02004824HS02004830    1.00   0.00  0.00  0.00  1.00  0.00  0.00  0.00  0.00  0.00
  HS02004830HS02004837    1.00   0.00  0.00  0.00  1.00  0.00  0.00  0.00  0.90  0.00
  HS02004837HS02004842    1.00   0.00  0.00  0.00  1.00  0.00  0.00  0.00  0.11  0.00
  HS02004842HS02004848    1.00   0.00  0.08  0.00  0.92  0.00  0.00  0.00  0.58  0.00
  HS02004848HS02004852    1.00   0.08  0.00  0.00  0.92  0.00  0.00  0.00  0.72  0.00
  HS02004852HS02004856    1.00   0.08  0.00  0.00  0.92  0.00  0.00  0.00  0.69  0.00
  HS02004856HS02004862    1.00   0.00  0.09  0.00  0.91  0.00  0.00  0.00  0.75  0.00
  HS02004862HS02004870    1.00   0.00  0.00  0.00  1.00  0.00  0.00  0.00  0.04  0.00
  HS02004870HS02004876    1.00   0.00  0.00  0.00  0.99  0.01  0.00  0.00  0.87  0.00
  HS02004876HS02004881    1.00   0.03  0.00  0.00  0.82  0.15  0.00  0.00  0.00  0.00
  HS02004881HS02006253    1.00   0.02  0.04  0.00  0.75  0.00  0.00  0.20  0.42  0.00
  HS02004901HS02004770    1.00   0.08  0.00  0.00  0.92  0.00  0.00  0.00  0.00  0.00
  WS02001211WS02001212    1.00   0.00  0.03  0.00  0.97  0.00  0.00  0.00  0.00  0.00
  WS02001212WS02001213    1.00   0.03  0.00  0.00  0.71  0.00  0.26  0.00  0.00  0.00
  WS02001213WS02003059    1.00   0.00  0.00  0.00  1.00  0.00  0.00  0.00  0.00  0.00
  WS02003059WS02003060    1.00   0.00  0.00  0.00  1.00  0.00  0.00  0.00  0.03  0.00
  WS02003060WS02003069    1.00   0.00  0.00  0.00  0.99  0.01  0.00  0.00  0.41  0.00
  WS02003066WSF200        1.00   0.06  0.00  0.00  0.00  0.94  0.00  0.00  0.66  0.00
  WS02003067WS02003066    1.00   0.05  0.00  0.00  0.94  0.00  0.00  0.00  0.00  0.00
  WS02003069WS02003072    1.00   0.00  0.00  0.00  1.00  0.00  0.00  0.00  0.47  0.00
  WS02003072WS02003073    1.00   0.00  0.00  0.00  0.00  0.00  0.00  1.00  0.00  0.00
  WS02004138WS02004139    1.00   0.00  0.01  0.00  0.97  0.01  0.00  0.02  0.98  0.00
  WS02004139WS02001211    1.00   0.00  0.00  0.00  1.00  0.00  0.00  0.00  0.00  0.00
  WS02004401WS02004402    1.00   0.03  0.00  0.00  0.96  0.00  0.00  0.00  0.00  0.00
  WS02004402WS02004403    1.00   0.04  0.00  0.00  0.96  0.00  0.00  0.00  0.00  0.00
  WS02004403WS02004404    1.00   0.00  0.04  0.00  0.96  0.00  0.00  0.00  0.00  0.00
  WS02004404WS02004405    1.00   0.00  0.00  0.00  1.00  0.00  0.00  0.00  0.01  0.00
  WS02004405WS02004406    1.00   0.00  0.00  0.00  1.00  0.00  0.00  0.00  0.00  0.00
  WS02004406WS02004407    1.00   0.00  0.05  0.00  0.95  0.00  0.00  0.00  0.00  0.00
  WS02004407WS02004409    1.00   0.05  0.00  0.00  0.95  0.00  0.00  0.00  0.85  0.00
  WS02004409WS02004410    1.00   0.05  0.00  0.00  0.95  0.00  0.00  0.00  0.00  0.00
  WS02004410WS02004411    1.00   0.05  0.00  0.00  0.95  0.00  0.00  0.00  0.00  0.00
  WS02004411WS02004412    1.00   0.05  0.00  0.00  0.95  0.00  0.00  0.00  0.00  0.00
  WS02004412WS02004413    1.00   0.05  0.00  0.00  0.95  0.00  0.00  0.00  0.00  0.00
  WS02004413WS02003067    1.00   0.05  0.00  0.00  0.00  0.00  0.95  0.00  0.00  0.00
  WS02006109WS02006110    1.00   0.00  0.00  0.00  0.98  0.00  0.02  0.00  0.00  0.00
  WS02006110WS02006113    1.00   0.00  0.02  0.00  0.98  0.00  0.00  0.00  0.00  0.00
  WS02006111WS02006112    1.00   0.03  0.00  0.00  0.97  0.00  0.00  0.00  0.77  0.00
  WS02006112WS02006115    1.00   0.03  0.00  0.00  0.96  0.00  0.00  0.00  0.00  0.00
  WS02006113WS02006111    1.00   0.02  0.00  0.00  0.19  0.78  0.00  0.00  0.11  0.00
  WS02006115WS02006116    1.00   0.03  0.00  0.00  0.96  0.00  0.00  0.01  0.00  0.00
  WS02006116WS02004401    1.00   0.03  0.00  0.00  0.97  0.00  0.00  0.00  0.00  0.00
  WS02006228WS02006109    1.00   0.00  0.00  0.00  1.00  0.00  0.00  0.00  0.01  0.00
  WS02006229WS02006228    1.00   0.00  0.00  0.00  1.00  0.00  0.00  0.00  0.00  0.00
  WS02006230WS02006229    1.00   0.00  0.00  0.00  0.98  0.00  0.00  0.02  0.02  0.00
  WS02006231WS02006230    1.00   0.00  0.00  0.00  0.50  0.00  0.50  0.00  0.00  0.00
  WS02006232WS02006231    1.00   0.00  0.00  0.00  0.99  0.00  0.00  0.00  0.00  0.00
  WS02006234WS02006232    1.00   0.00  0.00  0.00  1.00  0.00  0.00  0.00  0.02  0.00
  WS02006235WS02006234    1.00   0.00  0.00  0.00  0.96  0.00  0.04  0.00  0.00  0.00
  WS02006238WS02006235    1.00   0.00  0.00  0.00  1.00  0.00  0.00  0.00  0.00  0.00
  WS02006239WS02006238    1.00   0.00  0.00  0.00  1.00  0.00  0.00  0.00  0.13  0.00
  WS02006240WS02006239    1.00   0.00  0.00  0.00  0.87  0.00  0.00  0.12  0.02  0.00
  WS02006242WS02006240    1.00   0.00  0.00  0.00  0.99  0.00  0.00  0.00  0.00  0.00
  WS02006243WS02006242    1.00   0.00  0.00  0.00  1.00  0.00  0.00  0.00  0.44  0.00
  WS02006245WS02006243    1.00   0.00  0.00  0.00  0.95  0.00  0.00  0.05  0.00  0.00
  WS02006247WS02006245    1.00   0.00  0.00  0.00  0.99  0.00  0.00  0.01  0.00  0.00
  WS02006248WS02006247    1.00   0.00  0.00  0.00  1.00  0.00  0.00  0.00  0.42  0.00
  WS02006249WS02006248    1.00   0.00  0.00  0.00  0.81  0.00  0.19  0.00  0.00  0.00
  WS02006251WS02006249    1.00   0.00  0.00  0.00  1.00  0.00  0.00  0.00  0.42  0.00
  WS02006252WS02006251    1.00   0.00  0.19  0.00  0.28  0.00  0.52  0.00  0.00  0.00
  WS02006253WS02006251    1.00   0.00  0.00  0.00  1.00  0.00  0.00  0.00  0.01  0.00
  WS02006256WS02006235    1.00   0.00  0.00  0.00  0.99  0.01  0.00  0.00  0.00  0.00
  WS02006280WS02006229    1.00   0.08  0.00  0.00  0.14  0.05  0.00  0.73  0.02  0.00
  WS02006284WS02006280    1.00   0.08  0.00  0.00  0.09  0.01  0.00  0.81  0.00  0.00
  WS02006287WS02006284    1.00   0.07  0.02  0.00  0.61  0.30  0.00  0.00  0.66  0.00
  WSF200WS02003060        1.00   0.00  0.06  0.00  0.55  0.39  0.00  0.00  0.46  0.00
  YS02001580YS02001583    1.00   0.14  0.67  0.00  0.19  0.00  0.00  0.00  0.70  0.00
  YS02001583YS02001586    1.00   0.21  0.54  0.00  0.24  0.00  0.00  0.00  0.70  0.00
  YS02001586YS02001590    1.00   0.08  0.00  0.00  0.49  0.08  0.00  0.35  0.35  0.00
  YS02001590YS02001593    1.00   0.08  0.00  0.00  0.10  0.00  0.81  0.00  0.00  0.00
  YS02001593YS02001596    1.00   0.08  0.00  0.00  0.12  0.01  0.00  0.79  0.02  0.00
  YS02001596YS02001600    1.00   0.08  0.00  0.00  0.20  0.01  0.00  0.70  0.06  0.00
  YS02001600YS02001601    1.00   0.08  0.00  0.00  0.92  0.00  0.00  0.00  0.62  0.00
  YS02001601YS02001602    1.00   0.08  0.00  0.00  0.92  0.00  0.00  0.00  0.00  0.00
  YS02001602YS02001605    1.00   0.08  0.00  0.00  0.92  0.00  0.00  0.00  0.00  0.00
  YS02001605YS02001607    1.00   0.08  0.00  0.00  0.92  0.00  0.00  0.00  0.00  0.00
  YS02001607YS02001610    1.00   0.08  0.00  0.00  0.91  0.00  0.00  0.00  0.02  0.00
  YS02001610YS02001613    1.00   0.08  0.00  0.00  0.92  0.00  0.00  0.00  0.01  0.00
  YS02001613YS02001616    1.00   0.08  0.00  0.00  0.92  0.00  0.00  0.00  0.01  0.00
  YS02001616YS02001619    1.00   0.08  0.00  0.00  0.92  0.00  0.00  0.00  0.00  0.00
  YS02001619YS02001622    1.00   0.08  0.00  0.00  0.92  0.00  0.00  0.00  0.30  0.00
  YS02001622YS02001625    1.00   0.08  0.00  0.00  0.92  0.00  0.00  0.00  0.05  0.00
  YS02001625YS02001629    1.00   0.08  0.02  0.00  0.14  0.00  0.75  0.00  0.00  0.00
  YS02001629YS02163301    1.00   0.09  0.00  0.00  0.91  0.00  0.00  0.00  0.00  0.00
  YS02001633YS02163601    1.00   0.00  0.00  0.00  1.00  0.00  0.00  0.00  0.15  0.00
  YS02001641YS02001644    1.00   0.00  0.00  0.00  1.00  0.00  0.00  0.00  0.00  0.00
  YS02001644YS02001647    1.00   0.00  0.10  0.00  0.90  0.00  0.00  0.00  0.00  0.00
  YS02001647YS02001649    1.00   0.00  0.10  0.00  0.44  0.46  0.00  0.00  0.58  0.00
  YS02001649YS02001757    1.00   0.00  0.00  0.00  0.67  0.33  0.00  0.00  0.43  0.00
  YS02001652YS02001649    1.00   0.00  0.00  0.00  0.98  0.02  0.00  0.00  0.75  0.00
  YS02001655YS02001652    1.00   0.00  0.00  0.00  0.18  0.02  0.00  0.80  0.07  0.00
  YS02001658YS02001655    1.00   0.00  0.09  0.00  0.71  0.20  0.00  0.00  0.71  0.00
  YS02001661YS02001658    1.00   0.09  0.00  0.00  0.43  0.49  0.00  0.00  0.73  0.00
  YS02001664YS02001661    1.00   0.08  0.00  0.00  0.80  0.12  0.00  0.00  0.86  0.00
  YS02001745YS02001748    1.00   0.00  0.00  0.00  0.08  0.01  0.00  0.91  0.05  0.00
  YS02001748YS02001751    1.00   0.00  0.00  0.00  0.82  0.18  0.00  0.00  0.79  0.00
  YS02001751YS02001754    1.00   0.00  0.00  0.00  0.15  0.01  0.00  0.84  0.04  0.00
  YS02001754YS02001757    1.00   0.00  0.00  0.00  1.00  0.00  0.00  0.00  0.84  0.00
  YS02001757CaochengTiaoxuchi    1.00   0.00  0.00  0.00  0.97  0.03  0.00  0.00  0.69  0.00
  YS02001759YS02001757    1.00   0.00  0.00  0.00  1.00  0.00  0.00  0.00  0.56  0.00
  YS02001762YS02001759    1.00   0.00  0.00  0.00  1.00  0.00  0.00  0.00  0.05  0.00
  YS02001765YS02001762    1.00   0.00  0.00  0.00  1.00  0.00  0.00  0.00  0.70  0.00
  YS02001767YS02001765    1.00   0.00  0.00  0.00  1.00  0.00  0.00  0.00  0.01  0.00
  YS02001770YS02001767    1.00   0.00  0.00  0.00  1.00  0.00  0.00  0.00  0.00  0.00
  YS02001774YS02001770    1.00   0.00  0.08  0.00  0.84  0.00  0.07  0.00  0.03  0.00
  YS02001779YS02001774    1.00   0.00  0.00  0.00  1.00  0.00  0.00  0.00  0.80  0.00
  YS02001783YS02001784    1.00   0.00  0.10  0.00  0.90  0.00  0.00  0.00  0.56  0.00
  YS02001784YS02001785    1.00   0.00  0.00  0.00  1.00  0.00  0.00  0.00  0.17  0.00
  YS02001786YS02001788    1.00   0.00  0.00  0.00  0.77  0.23  0.00  0.00  0.00  0.00
  YS02001788YS02001790    1.00   0.00  0.00  0.00  0.13  0.87  0.00  0.00  0.83  0.00
  YS02001790YS02001791    1.00   0.00  0.00  0.00  0.01  0.99  0.00  0.00  0.16  0.00
  YS02001791YS02001793    1.00   0.00  0.00  0.00  0.00  1.00  0.00  0.00  0.01  0.00
  YS02001793JiankangQianchi    1.00   0.00  0.00  0.00  0.97  0.03  0.00  0.00  0.98  0.00
  YS02001882YS02001884    1.00   0.09  0.00  0.00  0.91  0.00  0.00  0.00  0.00  0.00
  YS02001884YS02001887    1.00   0.06  0.02  0.00  0.92  0.00  0.00  0.00  0.00  0.00
  YS02001887YS02001890    1.00   0.00  0.00  0.00  0.96  0.00  0.04  0.00  0.00  0.00
  YS02001890YS02001895    1.00   0.00  0.09  0.00  0.91  0.00  0.00  0.00  0.00  0.00
  YS02001895YS02001898    1.00   0.09  0.00  0.00  0.89  0.00  0.01  0.00  0.00  0.00
  YS02001898YS02001901    1.00   0.09  0.00  0.00  0.90  0.00  0.00  0.00  0.01  0.00
  YS02001901YS02001904    1.00   0.09  0.00  0.00  0.91  0.00  0.00  0.00  0.00  0.00
  YS02001904YS02001907    1.00   0.00  0.09  0.00  0.91  0.00  0.00  0.00  0.00  0.00
  YS02001907YS02006553    1.00   0.00  0.03  0.00  0.97  0.00  0.00  0.00  0.00  0.00
  YS02001910YS02001907    1.00   0.00  0.00  0.00  0.96  0.00  0.00  0.04  0.12  0.00
  YS02001915YS02001910    1.00   0.00  0.00  0.00  0.97  0.03  0.00  0.00  0.16  0.00
  YS02001918YS02001915    1.00   0.00  0.00  0.00  0.97  0.03  0.00  0.00  0.77  0.00
  YS02001920YS02001918    1.00   0.00  0.00  0.00  1.00  0.00  0.00  0.00  0.00  0.00
  YS02001923YS02001920    1.00   0.00  0.00  0.00  1.00  0.00  0.00  0.00  0.94  0.00
  YS02001926YS02001923    1.00   0.00  0.06  0.00  0.05  0.00  0.89  0.00  0.00  0.00
  YS02001929YS02001926    1.00   0.00  0.08  0.00  0.92  0.00  0.00  0.00  0.83  0.00
  YS02006553YS02006556    1.00   0.01  0.00  0.00  0.99  0.00  0.00  0.00  0.03  0.00
  YS02006556YS02006558    1.00   0.00  0.00  0.00  1.00  0.00  0.00  0.00  0.00  0.00
  YS02006558YS02006561    1.00   0.10  0.00  0.00  0.04  0.86  0.00  0.00  0.19  0.00
  YS02006561YS02001783    1.00   0.10  0.00  0.00  0.07  0.83  0.00  0.00  0.70  0.00
  YS02163301YS02001633    1.00   0.00  0.09  0.00  0.91  0.00  0.00  0.00  0.00  0.00
  YS02163601YS02164001    1.00   0.00  0.07  0.00  0.93  0.00  0.00  0.00  0.00  0.00
  YS02164001YS02001641    1.00   0.00  0.06  0.00  0.93  0.00  0.00  0.00  0.06  0.00
  YSB1154YSB6556          1.00   0.08  0.00  0.00  0.92  0.00  0.00  0.00  0.02  0.00
  YSB1171HS02004479       1.00   0.05  0.00  0.00  0.95  0.00  0.00  0.01  0.10  0.00
  YSB1174YSB1171          1.00   0.05  0.02  0.00  0.93  0.00  0.00  0.00  0.00  0.00
  YSB6556YSB1171          1.00   0.05  0.03  0.00  0.92  0.00  0.00  0.00  0.00  0.00
  
  
  *************************
  Conduit Surcharge Summary
  *************************
  
  ----------------------------------------------------------------------------
                                                           Hours        Hours 
                         --------- Hours Full --------   Above Full   Capacity
  Conduit                Both Ends  Upstream  Dnstream   Normal Flow   Limited
  ----------------------------------------------------------------------------
  HS02004478WS02006287        0.38      0.38      0.53      0.01         0.01
  HS02004479HS02004480        0.54      0.54      0.55      0.01         0.01
  HS02004480HS02004478        0.48      0.53      0.48      1.54         0.48
  HS02004770HS02004777        0.45      0.46      0.46      0.09         0.06
  HS02004777HS02004785        0.41      0.41      0.46      0.01         0.01
  HS02004785HS02004788        0.40      0.41      0.40      1.22         0.38
  HS02004788HS02004792        0.40      0.40      0.50      0.01         0.01
  HS02004792HS02004799        0.50      0.50      0.60      0.01         0.01
  HS02004799HS02004480        0.53      0.53      0.60      0.68         0.01
  HS02004802HS02004478        0.49      0.49      0.54      0.01         0.01
  HS02004807HS02004802        0.52      0.52      0.54      0.16         0.17
  HS02004817HS02004807        0.52      0.52      1.02      0.01         0.01
  HS02004817HS02004824        0.40      0.40      1.02      0.01         0.01
  HS02004824HS02004830        0.38      0.38      0.40      0.01         0.01
  HS02004830HS02004837        0.34      0.34      0.38      0.01         0.01
  HS02004837HS02004842        0.34      0.34      0.46      0.01         0.01
  HS02004842HS02004848        0.32      0.32      0.46      0.01         0.01
  HS02004848HS02004852        0.32      0.32      0.34      0.03         0.01
  HS02004852HS02004856        0.34      0.34      0.36      0.02         0.01
  HS02004856HS02004862        0.32      0.33      0.36      0.02         0.01
  HS02004862HS02004870        0.35      0.36      0.37      0.03         0.02
  HS02004870HS02004876        0.37      0.37      0.44      0.01         0.01
  HS02004876HS02004881        0.42      0.44      0.42      1.27         0.42
  HS02004881HS02006253        0.42      0.42      2.16      0.01         0.01
  HS02004901HS02004770        0.46      0.46      0.46      0.01         0.01
  WS02003072WS02003073        0.01      0.01      0.01      3.86         0.01
  WS02004401WS02004402        1.51      1.51      1.55      1.22         1.19
  WS02004402WS02004403        1.55      1.55      1.55      1.52         1.48
  WS02004403WS02004404        1.55      1.55      1.69      0.01         0.02
  WS02004404WS02004405        1.66      1.69      1.66      4.46         1.66
  WS02004405WS02004406        1.62      1.66      1.62      2.08         1.61
  WS02004406WS02004407        0.01      0.01      1.62      0.01         0.01
  WS02004407WS02004409        0.01      0.01      0.78      0.01         0.01
  WS02004409WS02004410        0.77      0.78      0.77      1.35         0.77
  WS02004410WS02004411        0.70      0.77      0.70      1.44         0.70
  WS02004411WS02004412        0.62      0.70      0.62      1.50         0.62
  WS02004412WS02004413        0.62      0.62      1.11      0.01         0.01
  WS02004413WS02003067        0.01      0.01      1.11      0.01         0.01
  WS02006109WS02006110        1.95      1.95      2.51      1.98         0.01
  WS02006110WS02006113        1.08      1.08      2.44      0.29         0.01
  WS02006111WS02006112        1.03      1.03      3.25      0.01         0.01
  WS02006112WS02006115        1.37      1.37      2.19      0.01         0.01
  WS02006113WS02006111        1.06      1.08      1.06      1.19         1.05
  WS02006115WS02006116        1.39      1.40      1.40      1.36         1.33
  WS02006116WS02004401        1.51      1.51      1.51      1.46         1.44
  WS02006228WS02006109        2.38      2.51      2.38      4.10         2.38
  WS02006229WS02006228        2.36      2.39      2.36      3.10         2.36
  WS02006230WS02006229        2.68      2.97      2.69      4.56         1.81
  WS02006231WS02006230        1.71      1.71      2.01      4.32         0.82
  WS02006232WS02006231        1.98      1.98      2.33      0.06         0.13
  WS02006234WS02006232        2.19      2.19      2.33      0.04         0.07
  WS02006235WS02006234        2.15      2.16      2.19      4.13         0.80
  WS02006238WS02006235        2.22      2.22      2.32      0.01         0.26
  WS02006239WS02006238        2.26      2.30      2.26      1.95         0.85
  WS02006240WS02006239        2.20      2.23      2.20      1.91         0.78
  WS02006242WS02006240        2.21      2.21      2.43      2.64         0.74
  WS02006243WS02006242        2.24      2.24      2.34      0.01         0.03
  WS02006245WS02006243        2.22      2.23      2.22      1.14         0.69
  WS02006247WS02006245        2.22      2.27      2.22      3.92         1.23
  WS02006248WS02006247        2.22      2.23      2.26      0.03         0.05
  WS02006249WS02006248        2.21      2.21      2.25      3.08         0.01
  WS02006251WS02006249        2.24      2.27      2.25      2.67         2.20
  WS02006252WS02006251        2.79      2.79      2.81      2.41         0.01
  WS02006253WS02006251        2.26      2.26      2.30      0.65         0.01
  WS02006256WS02006235        4.23      4.29      6.96      0.49         0.01
  WS02006280WS02006229        0.63      0.63      0.77      0.01         0.01
  WS02006284WS02006280        0.55      0.55      0.62      0.01         0.01
  WS02006287WS02006284        0.47      0.47      0.56      0.20         0.20
  YS02001580YS02001583        0.45      0.46      0.51      0.01         0.01
  YS02001583YS02001586        0.46      0.46      0.59      0.01         0.01
  YS02001586YS02001590        0.60      0.60      0.66      0.01         0.01
  YS02001590YS02001593        0.66      0.66      0.68      0.71         0.01
  YS02001593YS02001596        0.67      0.67      0.75      0.01         0.01
  YS02001596YS02001600        0.79      0.79      0.88      0.01         0.01
  YS02001600YS02001601        0.94      0.94      1.25      0.01         0.01
  YS02001601YS02001602        1.11      1.11      1.30      0.89         0.01
  YS02001602YS02001605        1.06      1.06      1.11      2.05         0.01
  YS02001605YS02001607        1.01      1.06      1.01      1.19         1.01
  YS02001607YS02001610        0.63      0.63      0.65      0.01         0.01
  YS02001610YS02001613        0.62      0.62      0.65      0.01         0.01
  YS02001613YS02001616        0.59      0.59      0.62      0.01         0.01
  YS02001616YS02001619        0.58      0.58      0.59      0.01         0.01
  YS02001619YS02001622        0.57      0.58      0.57      0.69         0.54
  YS02001622YS02001625        0.57      0.57      0.73      0.01         0.01
  YS02001625YS02001629        0.53      0.53      0.73      0.01         0.01
  YS02001629YS02163301        0.72      0.72      0.73      0.17         0.15
  YS02001633YS02163601        0.75      0.75      0.77      0.34         0.34
  YS02001641YS02001644        0.67      0.70      0.67      1.36         0.66
  YS02001644YS02001647        0.48      0.48      0.67      0.03         0.01
  YS02001647YS02001649        0.48      0.48      0.59      0.01         0.01
  YS02001649YS02001757        0.59      0.59      0.65      0.21         0.19
  YS02001652YS02001649        0.43      0.43      0.59      0.01         0.01
  YS02001655YS02001652        0.26      0.26      0.41      0.01         0.01
  YS02001658YS02001655        0.09      0.09      0.26      0.01         0.01
  YS02001661YS02001658        0.01      0.01      0.09      0.01         0.01
  YS02001664YS02001661        0.01      0.01      0.02      0.01         0.01
  YS02001745YS02001748        0.01      0.01      0.01      0.01         0.01
  YS02001748YS02001751        0.05      0.05      0.15      0.01         0.01
  YS02001751YS02001754        0.15      0.15      0.31      0.01         0.01
  YS02001754YS02001757        0.36      0.36      0.65      0.01         0.01
  YS02001757CaochengTiaoxuchi        0.57      0.65      1.84      0.30         0.21
  YS02001759YS02001757        0.55      0.55      0.65      0.01         0.02
  YS02001762YS02001759        0.52      0.52      0.55      0.01         0.02
  YS02001765YS02001762        0.48      0.48      0.52      0.01         0.01
  YS02001767YS02001765        0.44      0.44      0.48      0.01         0.04
  YS02001770YS02001767        0.44      0.44      0.44      0.42         0.32
  YS02001774YS02001770        0.42      0.42      0.50      0.01         0.01
  YS02001779YS02001774        0.31      0.31      0.50      0.01         0.01
  YS02001783YS02001784        0.42      0.44      0.42      0.55         0.42
  YS02001784YS02001785        0.33      0.42      0.33      0.75         0.33
  YS02001786YS02001788        0.01      0.33      0.01      0.64         0.01
  YS02001790YS02001791        0.01      0.01      0.01      0.41         0.01
  YS02001793JiankangQianchi        0.01      0.01      6.87      0.01         0.01
  YS02001882YS02001884        0.39      0.39      0.40      0.01         0.01
  YS02001884YS02001887        0.42      0.42      0.43      0.01         0.01
  YS02001887YS02001890        0.44      0.44      0.45      0.06         0.01
  YS02001890YS02001895        0.38      0.38      0.47      0.01         0.01
  YS02001895YS02001898        0.38      0.38      0.38      0.01         0.01
  YS02001898YS02001901        0.38      0.38      0.42      0.01         0.01
  YS02001901YS02001904        0.41      0.41      0.42      0.01         0.01
  YS02001904YS02001907        0.41      0.41      0.62      0.01         0.01
  YS02001907YS02006553        0.76      0.76      0.81      0.01         0.01
  YS02001910YS02001907        0.47      0.47      0.61      0.01         0.01
  YS02001915YS02001910        0.39      0.39      0.47      0.01         0.01
  YS02001918YS02001915        0.32      0.32      0.39      0.01         0.01
  YS02001920YS02001918        0.31      0.31      0.33      0.01         0.01
  YS02001923YS02001920        0.28      0.28      0.33      0.01         0.01
  YS02001926YS02001923        0.01      0.01      0.02      0.01         0.01
  YS02001929YS02001926        0.01      0.01      0.02      0.01         0.01
  YS02006553YS02006556        0.54      0.54      0.62      0.01         0.01
  YS02006556YS02006558        0.58      0.58      0.63      0.01         0.01
  YS02006558YS02006561        0.35      0.53      0.35      0.71         0.35
  YS02006561YS02001783        0.28      0.28      0.44      0.01         0.01
  YS02163301YS02001633        0.73      0.73      0.76      0.01         0.01
  YS02163601YS02164001        0.70      0.70      0.77      0.04         0.01
  YS02164001YS02001641        0.70      0.70      0.70      0.66         0.58
  YSB1154YSB6556              0.58      0.58      0.70      0.01         0.01
  YSB1171HS02004479           0.50      0.50      0.71      0.01         0.01
  YSB1174YSB1171              0.63      0.63      0.93      0.01         0.01
  YSB6556YSB1171              0.58      0.58      1.08      0.01         0.01
  
  
  ***************
  Pumping Summary
  ***************
  
  ---------------------------------------------------------------------------------------------------------
                                                  Min       Avg       Max     Total     Power    % Time Off
                        Percent   Number of      Flow      Flow      Flow    Volume     Usage    Pump Curve
  Pump                 Utilized   Start-Ups       LPS       LPS       LPS  10^6 ltr     Kw-hr    Low   High
  ---------------------------------------------------------------------------------------------------------
  CC-R1                   16.55           9      0.00    683.00    683.00     3.256     60.14    0.0   13.4
  CC-R2                    9.18          11      0.00    683.00    683.00     1.806     33.77    0.0   13.2
  CC-S1                   42.61          23      0.00    200.00    200.00     2.455     16.21    0.0    0.0
  CC-S2                   41.36          19      0.00    200.00    200.00     2.382     15.94    0.0    0.0
  JK-R1                    5.59          21      0.00   1000.00   1000.00     1.609     14.89    0.0    0.0
  JK-R2                    3.78          22      0.00   1000.00   1000.00     1.090      8.85    0.0    0.0
  JK-S                    10.08          38      0.00    300.00    300.00     0.871     15.54    0.0    0.0
  XR-1                    97.91           2      0.00     95.00     95.00     2.679      9.61    0.0    0.0
  XR-2                    93.94           2      0.00     95.00     95.00     2.570      8.77    0.0    0.0
  XR-3                     0.00           1      0.00     95.00     95.00     0.000      0.00    0.0    0.0
  XR-4                     0.00           1      0.00     95.00     95.00     0.000      0.00    0.0    0.0
  

  Analysis begun on:  Mon Feb 27 13:40:22 2023
  Analysis ended on:  Mon Feb 27 13:40:26 2023
  Total elapsed time: 00:00:04