
  OWA STORM WATER MANAGEMENT MODEL - VERSION v5.1.14 (OWA 2023-01-25)
  --------------------------------------------------------------

  WARNING 04: minimum elevation drop used for Conduit WS02004404WS02004405
  WARNING 03: negative offset ignored for Link YS02001904YS02001907
  
  *********************************************************
  NOTE: The summary statistics displayed in this report are
  based on results found at every computational time step,  
  not just on results from each reporting time step.
  *********************************************************
  
  ****************
  Analysis Options
  ****************
  Flow Units ............... LPS
  Process Models:
    Rainfall/Runoff ........ YES
    RDII ................... NO
    Snowmelt ............... NO
    Groundwater ............ NO
    Flow Routing ........... YES
    Ponding Allowed ........ NO
    Water Quality .......... NO
  Infiltration Method ...... HORTON
  Flow Routing Method ...... DYNWAVE
  Surcharge Method ......... EXTRAN
  Starting Date ............ 08/28/2015 08:00:00
  Ending Date .............. 08/28/2015 16:00:00
  Antecedent Dry Days ...... 8.0
  Report Time Step ......... 00:01:00
  Wet Time Step ............ 00:01:00
  Dry Time Step ............ 00:01:00
  Routing Time Step ........ 30.00 sec
  Variable Time Step ....... YES
  Maximum Trials ........... 8
  Number of Threads ........ 1
  Head Tolerance ........... 0.001500 m
  
  
  **************************        Volume         Depth
  Runoff Quantity Continuity     hectare-m            mm
  **************************     ---------       -------
  Total Precipitation ......         1.568        25.887
  Evaporation Loss .........         0.000         0.000
  Infiltration Loss ........         0.206         3.401
  Surface Runoff ...........         1.302        21.487
  Final Storage ............         0.061         1.005
  Continuity Error (%) .....        -0.021
  
  
  **************************        Volume        Volume
  Flow Routing Continuity        hectare-m      10^6 ltr
  **************************     ---------     ---------
  Dry Weather Inflow .......         0.630         6.296
  Wet Weather Inflow .......         1.302        13.017
  Groundwater Inflow .......         0.000         0.000
  RDII Inflow ..............         0.000         0.000
  External Inflow ..........         0.105         1.045
  External Outflow .........         1.723        17.227
  Flooding Loss ............         0.304         3.044
  Evaporation Loss .........         0.000         0.000
  Exfiltration Loss ........         0.000         0.000
  Initial Stored Volume ....         0.303         3.031
  Final Stored Volume ......         0.322         3.215
  Continuity Error (%) .....        -0.418
  
  
  *************************
  Highest Continuity Errors
  *************************
  Node YS02001583 (-7.95%)
  Node WS02006256 (-5.23%)
  Node YS02001884 (5.13%)
  Node HS02004842 (3.23%)
  Node YS02001774 (2.42%)
  
  
  ***************************
  Time-Step Critical Elements
  ***************************
  Link WS02006280WS02006229 (46.21%)
  Link WS02006252WS02006251 (26.43%)
  Link WS02006238WS02006235 (9.98%)
  Link WS02004404WS02004405 (5.65%)
  Link YS02001791YS02001793 (1.73%)
  
  
  ********************************
  Highest Flow Instability Indexes
  ********************************
  Link WS02006113WS02006111 (18)
  Link WS02006256WS02006235 (17)
  Link WS02006229WS02006228 (14)
  Link WS02006238WS02006235 (13)
  Link WS02006252WS02006251 (13)
  
  
  *************************
  Routing Time Step Summary
  *************************
  Minimum Time Step           :     0.01 sec
  Average Time Step           :     2.46 sec
  Maximum Time Step           :     6.46 sec
  Percent in Steady State     :    -0.00
  Average Iterations per Step :     3.22
  Percent Not Converging      :    12.54
  
  
  ***************************
  Subcatchment Runoff Summary
  ***************************
  
  ------------------------------------------------------------------------------------------------------------------------------
                            Total      Total      Total      Total     Imperv       Perv      Total       Total     Peak  Runoff
                           Precip      Runon       Evap      Infil     Runoff     Runoff     Runoff      Runoff   Runoff   Coeff
  Subcatchment                 mm         mm         mm         mm         mm         mm         mm    10^6 ltr      LPS
  ------------------------------------------------------------------------------------------------------------------------------
  sub0                      25.89       0.00       0.00       0.86      22.82       0.95      23.77        0.02    15.96   0.918
  sub1                      25.89       0.00       0.00       1.48      21.79       1.37      23.15        0.15   100.24   0.894
  sub10                     25.89       0.00       0.00       1.04      22.53       1.03      23.56        0.26   173.20   0.910
  sub11                     25.89       0.00       0.00       1.02      22.55       1.05      23.60        0.27   196.45   0.912
  sub12                     25.89       0.00       0.00       1.66      21.34       1.71      23.05        0.20   160.48   0.890
  sub14                     25.89       0.00       0.00       1.17      22.29       1.16      23.46        0.22   154.55   0.906
  sub15                     25.89       0.00       0.00       4.60      17.15       3.16      20.31        0.35   222.18   0.785
  sub16                     25.89       0.00       0.00       4.77      16.43       3.77      20.20        0.21   152.28   0.780
  sub17                     25.89       0.00       0.00       4.66      16.67       3.63      20.30        0.17   123.45   0.784
  sub2                      25.89       0.00       0.00       6.39      15.40       3.19      18.59        0.17    94.61   0.718
  sub22                     25.89       0.00       0.00       6.92      13.97       4.21      18.18        1.15   720.40   0.702
  sub23                     25.89       0.00       0.00       5.69      15.44       3.89      19.33        0.92   607.88   0.747
  sub3                      25.89       0.00       0.00       6.76      15.36       2.82      18.18        0.41   199.82   0.702
  sub4                      25.89       0.00       0.00       1.66      21.63       1.19      22.82        0.48   226.07   0.881
  sub5                      25.89       0.00       0.00       0.90      22.77       0.91      23.67        0.27   174.97   0.915
  sub60                     25.89       0.00       0.00       1.57      21.57       1.54      23.11        0.30   221.09   0.893
  sub61                     25.89       0.00       0.00       2.28      20.35       2.12      22.47        0.41   303.14   0.868
  sub62                     25.89       0.00       0.00       1.04      22.52       1.03      23.55        0.65   423.33   0.910
  sub63                     25.89       0.00       0.00       4.24      17.40       3.27      20.68        0.47   323.50   0.799
  sub64                     25.89       0.00       0.00       2.14      20.79       1.74      22.54        0.54   332.93   0.871
  sub65                     25.89       0.00       0.00       1.85      21.26       1.51      22.78        0.63   370.19   0.880
  sub66                     25.89       0.00       0.00       5.06      17.30       2.45      19.75        0.92   451.81   0.763
  sub67                     25.89       0.00       0.00       1.00      22.56       1.07      23.64        0.44   343.70   0.913
  sub68                     25.89       0.00       0.00       1.89      21.07       1.73      22.80        0.63   431.10   0.881
  sub69                     25.89       0.00       0.00       1.64      21.89       2.25      24.14        0.89   500.36   0.932
  sub7                      25.89       0.00       0.00       1.15      22.31       1.19      23.49        0.08    58.53   0.908
  sub70                     25.89       0.00       0.00       5.24      16.92       3.56      20.48        0.59   257.20   0.791
  sub71                     25.89       0.00       0.00       1.08      22.48       1.00      23.48        0.61   364.68   0.907
  sub72                     25.89       0.00       0.00       0.96      22.67       0.85      23.52        0.32   171.48   0.909
  sub8                      25.89       0.00       0.00       1.16      22.30       1.17      23.47        0.15   105.77   0.907
  sub9                      25.89       0.00       0.00       1.16      22.30       1.17      23.46        0.11    78.78   0.906
  
  
  ******************
  Node Depth Summary
  ******************
  
  ---------------------------------------------------------------------------------
                                 Average  Maximum  Maximum  Time of Max    Reported
                                   Depth    Depth      HGL   Occurrence   Max Depth
  Node                 Type       Meters   Meters   Meters  days hr:min      Meters
  ---------------------------------------------------------------------------------
  HS02004478           JUNCTION     0.14     1.44    10.66     0  02:25        1.09
  HS02004479           JUNCTION     0.21     1.70    10.90     0  02:25        1.39
  HS02004480           JUNCTION     0.18     1.65    10.89     0  02:25        1.34
  HS02004770           JUNCTION     0.19     1.42    11.25     0  02:25        1.42
  HS02004777           JUNCTION     0.22     1.48    11.28     0  02:25        1.42
  HS02004785           JUNCTION     0.11     1.49    11.39     0  02:25        1.25
  HS02004788           JUNCTION     0.08     1.42    11.32     0  02:25        1.42
  HS02004792           JUNCTION     0.11     1.60    11.12     0  02:25        1.45
  HS02004799           JUNCTION     0.23     1.76    10.97     0  02:25        1.52
  HS02004802           JUNCTION     0.23     1.44    10.57     0  02:25        1.23
  HS02004807           JUNCTION     0.20     1.28    10.45     0  02:25        1.22
  HS02004817           JUNCTION     0.50     1.62    10.47     0  02:25        1.53
  HS02004824           JUNCTION     0.08     1.19    10.59     0  02:25        0.95
  HS02004830           JUNCTION     0.08     1.05    10.52     0  02:25        0.82
  HS02004837           JUNCTION     0.06     0.83    10.41     0  02:26        0.68
  HS02004842           JUNCTION     0.35     1.34    10.61     0  02:25        0.97
  HS02004848           JUNCTION     0.04     0.60    10.20     0  02:26        0.59
  HS02004852           JUNCTION     0.05     0.65    10.16     0  02:29        0.64
  HS02004856           JUNCTION     0.11     0.72    10.15     0  02:29        0.70
  HS02004862           JUNCTION     0.06     0.94    10.32     0  02:29        0.94
  HS02004870           JUNCTION     0.05     1.02    10.30     0  02:28        0.77
  HS02004876           JUNCTION     0.10     1.74    10.77     0  02:27        0.93
  HS02004881           JUNCTION     0.05     1.25    10.27     0  02:28        0.87
  HS02004901           JUNCTION     0.20     1.42    11.24     0  02:25        1.42
  WS02001211           JUNCTION     0.62     0.79     5.63     0  02:30        0.79
  WS02001212           JUNCTION     0.36     0.55     5.61     0  02:30        0.55
  WS02001213           JUNCTION     0.57     0.84     5.61     0  02:30        0.84
  WS02003059           JUNCTION     0.63     0.91     5.60     0  02:29        0.91
  WS02003060           JUNCTION     0.35     0.66     5.59     0  02:29        0.66
  WS02003066           JUNCTION     0.21     0.44     5.99     0  02:27        0.44
  WS02003067           JUNCTION     0.51     0.87     6.19     0  02:26        0.87
  WS02003069           JUNCTION     0.39     0.75     5.33     0  02:30        0.75
  WS02003072           JUNCTION     0.46     0.79     5.16     0  02:30        0.79
  WS02003073           JUNCTION     0.27     0.50     4.56     0  02:31        0.50
  WS02004138           JUNCTION     0.13     0.14     7.39     0  00:29        0.14
  WS02004139           JUNCTION     0.55     0.72     5.63     0  02:29        0.72
  WS02004401           JUNCTION     0.67     1.83     7.83     0  02:35        1.75
  WS02004402           JUNCTION     0.69     1.79     7.75     0  02:35        1.70
  WS02004403           JUNCTION     0.70     1.72     7.65     0  02:35        1.63
  WS02004404           JUNCTION     0.77     1.72     7.57     0  02:35        1.64
  WS02004405           JUNCTION     0.76     1.66     7.51     0  02:35        1.59
  WS02004406           JUNCTION     0.76     1.49     7.32     0  02:35        1.48
  WS02004407           JUNCTION     0.21     0.79     7.11     0  02:27        0.79
  WS02004409           JUNCTION     0.45     1.30     7.07     0  02:26        1.29
  WS02004410           JUNCTION     0.47     1.22     6.94     0  02:27        1.22
  WS02004411           JUNCTION     0.48     1.15     6.83     0  02:27        1.14
  WS02004412           JUNCTION     0.49     1.06     6.70     0  02:26        1.06
  WS02004413           JUNCTION     0.64     1.12     6.59     0  02:26        1.12
  WS02006109           JUNCTION     0.81     2.64     9.26     0  02:25        2.64
  WS02006110           JUNCTION     0.77     2.34     8.93     0  02:25        2.33
  WS02006111           JUNCTION     0.30     1.61     8.31     0  02:35        1.58
  WS02006112           JUNCTION     0.85     2.23     8.11     0  02:35        2.19
  WS02006113           JUNCTION     0.38     1.73     8.62     0  02:26        1.70
  WS02006115           JUNCTION     0.58     1.87     8.01     0  02:35        1.81
  WS02006116           JUNCTION     0.65     1.89     7.93     0  02:35        1.82
  WS02006228           JUNCTION     0.84     3.03     9.68     0  02:25        2.93
  WS02006229           JUNCTION     0.83     3.23     9.92     0  02:25        3.06
  WS02006230           JUNCTION     0.79     2.65     9.39     0  02:22        2.65
  WS02006231           JUNCTION     0.53     2.20     9.32     0  02:27        2.20
  WS02006232           JUNCTION     0.63     2.18     9.22     0  02:22        2.18
  WS02006234           JUNCTION     0.52     1.96     9.12     0  02:21        1.96
  WS02006235           JUNCTION     0.54     2.00     9.16     0  02:40        1.93
  WS02006238           JUNCTION     0.56     2.02     9.17     0  02:40        1.93
  WS02006239           JUNCTION     0.51     1.87     9.08     0  02:40        1.79
  WS02006240           JUNCTION     0.47     1.68     8.97     0  02:40        1.64
  WS02006242           JUNCTION     0.51     1.55     8.82     0  02:20        1.55
  WS02006243           JUNCTION     0.41     1.39     8.81     0  03:00        1.38
  WS02006245           JUNCTION     0.40     1.29     8.77     0  03:00        1.27
  WS02006247           JUNCTION     0.41     1.24     8.74     0  03:00        1.23
  WS02006248           JUNCTION     0.36     1.10     8.69     0  02:18        1.10
  WS02006249           JUNCTION     0.39     1.09     8.69     0  02:18        1.09
  WS02006251           JUNCTION     0.42     2.07     9.74     0  02:28        1.96
  WS02006252           JUNCTION     0.28     1.50     9.74     0  00:00        1.50
  WS02006253           JUNCTION     0.46     2.63    10.28     0  02:28        2.23
  WS02006256           JUNCTION     0.87     2.35     9.28     0  00:00        2.35
  WS02006280           JUNCTION     0.19     1.75    10.02     0  02:25        1.54
  WS02006284           JUNCTION     0.46     1.90    10.30     0  02:25        1.64
  WS02006287           JUNCTION     0.20     1.62    10.58     0  02:25        1.30
  WSF200               JUNCTION     0.19     0.50     5.73     0  02:29        0.50
  YS02001580           JUNCTION     0.03     1.05     9.59     0  02:25        0.61
  YS02001583           JUNCTION     0.05     1.14     9.64     0  02:25        0.66
  YS02001586           JUNCTION     0.11     1.13     9.30     0  02:25        1.00
  YS02001590           JUNCTION     0.19     1.40     9.26     0  02:23        1.24
  YS02001593           JUNCTION     0.12     1.46     9.32     0  02:23        1.19
  YS02001596           JUNCTION     0.17     1.80     9.22     0  02:35        1.58
  YS02001600           JUNCTION     0.22     1.87     9.00     0  02:23        1.83
  YS02001601           JUNCTION     0.42     2.06     8.90     0  02:23        2.06
  YS02001602           JUNCTION     0.35     1.87     8.77     0  02:24        1.85
  YS02001605           JUNCTION     0.32     1.78     8.68     0  02:24        1.65
  YS02001607           JUNCTION     0.32     1.68     8.53     0  02:25        1.40
  YS02001610           JUNCTION     0.36     1.68     8.48     0  02:24        1.46
  YS02001613           JUNCTION     0.32     1.70     8.54     0  02:25        1.40
  YS02001616           JUNCTION     0.25     1.61     8.52     0  02:25        1.30
  YS02001619           JUNCTION     0.23     1.61     8.54     0  02:25        1.36
  YS02001622           JUNCTION     0.22     1.59     8.50     0  02:25        1.44
  YS02001625           JUNCTION     0.48     1.78     8.38     0  02:25        1.78
  YS02001629           JUNCTION     0.33     1.85     8.40     0  02:24        1.85
  YS02001633           JUNCTION     0.40     1.88     8.34     0  02:25        1.88
  YS02001641           JUNCTION     0.39     1.39     7.83     0  02:25        1.24
  YS02001644           JUNCTION     0.39     1.23     7.66     0  02:25        1.17
  YS02001647           JUNCTION     0.17     0.84     7.45     0  02:27        0.82
  YS02001649           JUNCTION     0.20     0.96     7.35     0  02:26        0.95
  YS02001652           JUNCTION     0.09     0.76     7.35     0  02:29        0.75
  YS02001655           JUNCTION     0.06     0.49     7.34     0  02:29        0.47
  YS02001658           JUNCTION     0.05     0.26     7.40     0  02:26        0.26
  YS02001661           JUNCTION     0.11     0.31     7.72     0  02:25        0.31
  YS02001664           JUNCTION     0.04     0.22     8.14     0  02:25        0.21
  YS02001745           JUNCTION     0.04     0.20     7.71     0  02:25        0.20
  YS02001748           JUNCTION     0.04     0.23     7.30     0  02:25        0.22
  YS02001751           JUNCTION     0.05     0.34     7.22     0  02:29        0.32
  YS02001754           JUNCTION     0.07     0.65     7.26     0  02:29        0.62
  YS02001757           JUNCTION     0.20     0.97     7.23     0  02:29        0.94
  YS02001759           JUNCTION     0.14     0.87     7.24     0  02:28        0.86
  YS02001762           JUNCTION     0.14     0.84     7.24     0  02:29        0.84
  YS02001765           JUNCTION     0.12     0.80     7.25     0  02:29        0.79
  YS02001767           JUNCTION     0.13     0.76     7.25     0  02:28        0.75
  YS02001770           JUNCTION     0.15     0.78     7.28     0  02:28        0.78
  YS02001774           JUNCTION     0.21     0.86     7.28     0  02:28        0.85
  YS02001779           JUNCTION     0.05     0.60     7.29     0  02:28        0.58
  YS02001783           JUNCTION     0.18     1.02     7.16     0  02:29        1.00
  YS02001784           JUNCTION     0.20     0.93     7.00     0  02:29        0.93
  YS02001786           JUNCTION     0.17     0.76     6.79     0  02:29        0.76
  YS02001788           JUNCTION     0.12     0.57     6.55     0  02:29        0.57
  YS02001790           JUNCTION     0.15     0.67     6.31     0  02:30        0.66
  YS02001791           JUNCTION     0.10     0.40     5.87     0  02:30        0.39
  YS02001793           JUNCTION     0.05     0.20     5.03     0  02:33        0.20
  YS02001882           JUNCTION     0.22     1.18     7.90     0  02:29        1.14
  YS02001884           JUNCTION     0.31     1.28     7.90     0  02:29        1.24
  YS02001887           JUNCTION     0.38     1.37     7.90     0  02:29        1.32
  YS02001890           JUNCTION     0.41     1.39     7.90     0  02:29        1.36
  YS02001895           JUNCTION     0.19     1.14     7.89     0  02:29        1.11
  YS02001898           JUNCTION     0.20     1.15     7.89     0  02:29        1.12
  YS02001901           JUNCTION     0.31     1.28     7.89     0  02:29        1.24
  YS02001904           JUNCTION     0.29     1.25     7.88     0  02:29        1.22
  YS02001907           JUNCTION     0.60     1.59     7.88     0  02:29        1.56
  YS02001910           JUNCTION     0.40     1.38     7.89     0  02:29        1.36
  YS02001915           JUNCTION     0.22     1.19     7.91     0  02:29        1.17
  YS02001918           JUNCTION     0.09     0.85     7.91     0  02:29        0.84
  YS02001920           JUNCTION     0.17     0.92     7.92     0  02:29        0.90
  YS02001923           JUNCTION     0.06     0.66     7.92     0  02:29        0.65
  YS02001926           JUNCTION     0.11     0.48     7.92     0  02:30        0.48
  YS02001929           JUNCTION     0.05     0.20     7.90     0  02:30        0.19
  YS02006553           JUNCTION     0.60     1.58     7.86     0  02:29        1.55
  YS02006556           JUNCTION     0.58     1.51     7.82     0  02:29        1.49
  YS02006558           JUNCTION     0.62     1.55     7.81     0  02:29        1.52
  YS02006561           JUNCTION     0.10     0.59     7.25     0  02:29        0.58
  YS02163301           JUNCTION     0.35     1.93     8.45     0  02:25        1.93
  YS02163601           JUNCTION     0.44     1.68     8.08     0  02:25        1.60
  YS02164001           JUNCTION     0.38     1.50     7.96     0  02:25        1.35
  YSB1154              JUNCTION     0.34     1.95    11.01     0  02:25        1.51
  YSB1171              JUNCTION     0.49     1.95    10.85     0  02:25        1.68
  YSB1174              JUNCTION     0.30     1.82    10.93     0  02:25        1.44
  YSB6556              JUNCTION     0.24     1.80    10.97     0  02:25        1.41
  CC-1                 OUTFALL      0.00     0.00     0.00     0  00:00        0.00
  CC-2                 OUTFALL      0.00     0.00     0.00     0  00:00        0.00
  JK-1                 OUTFALL      0.00     0.00     0.00     0  00:00        0.00
  JK-2                 OUTFALL      0.00     0.00     0.00     0  00:00        0.00
  WSC                  OUTFALL      0.27     0.50     1.17     0  02:31        0.50
  CC-storage           STORAGE      0.65     1.28     6.78     0  02:47        1.28
  JK-storage           STORAGE      1.33     4.22     5.02     0  02:33        4.19
  XR-storage           STORAGE      7.86     9.26     7.26     0  08:00        9.26
  
  
  *******************
  Node Inflow Summary
  *******************
  
  -------------------------------------------------------------------------------------------------
                                  Maximum  Maximum                  Lateral       Total        Flow
                                  Lateral    Total  Time of Max      Inflow      Inflow     Balance
                                   Inflow   Inflow   Occurrence      Volume      Volume       Error
  Node                 Type           LPS      LPS  days hr:min    10^6 ltr    10^6 ltr     Percent
  -------------------------------------------------------------------------------------------------
  HS02004478           JUNCTION      0.00  2065.86     0  02:25           0        4.35      -0.017
  HS02004479           JUNCTION      0.00   349.02     0  02:25           0       0.478       0.163
  HS02004480           JUNCTION      0.00  2046.71     0  02:25           0        3.35       0.075
  HS02004770           JUNCTION    607.88   752.72     0  02:24       0.922        1.12       0.258
  HS02004777           JUNCTION      0.03   753.58     0  02:24    0.000864        1.11       0.458
  HS02004785           JUNCTION      0.15   765.05     0  02:24     0.00432        1.11       0.038
  HS02004788           JUNCTION    223.85   868.36     0  02:28       0.397        1.51      -0.034
  HS02004792           JUNCTION    720.68  1560.38     0  02:26        1.16        2.66       0.021
  HS02004799           JUNCTION    154.55  1713.62     0  02:26       0.223        2.88       0.084
  HS02004802           JUNCTION      0.00   352.24     0  02:37           0        1.04       0.388
  HS02004807           JUNCTION    196.45   393.60     0  02:25       0.274         1.1       0.382
  HS02004817           JUNCTION      0.60   389.26     0  02:25      0.0173       0.893       1.866
  HS02004824           JUNCTION    226.12   605.57     0  02:25       0.477       0.973       0.065
  HS02004830           JUNCTION      0.15   609.80     0  02:25     0.00432       0.589       0.188
  HS02004837           JUNCTION    179.55   801.48     0  02:25       0.443        0.71       0.113
  HS02004842           JUNCTION      0.00   751.48     0  02:26           0       0.394       3.336
  HS02004848           JUNCTION    199.82   951.13     0  02:26       0.409       0.692       0.013
  HS02004852           JUNCTION      0.00   915.26     0  02:26           0       0.593       0.010
  HS02004856           JUNCTION     78.78   961.61     0  02:27       0.113       0.706       0.206
  HS02004862           JUNCTION     94.81  1047.12     0  02:27       0.179       0.884       0.029
  HS02004870           JUNCTION    105.77  1143.45     0  02:27        0.15        1.03       0.016
  HS02004876           JUNCTION    100.24  1201.78     0  02:27       0.154        1.19       0.056
  HS02004881           JUNCTION     58.53  1185.31     0  02:27      0.0792        1.27       0.014
  HS02004901           JUNCTION    152.28   152.28     0  02:25       0.212       0.212       0.827
  WS02001211           JUNCTION      7.35   207.60     0  02:46       0.212        5.44       0.612
  WS02001212           JUNCTION      0.00   217.56     0  02:46           0        5.41       0.290
  WS02001213           JUNCTION      0.00   224.87     0  02:46           0        5.39       0.333
  WS02003059           JUNCTION      0.00   232.38     0  02:46           0        5.38       0.596
  WS02003060           JUNCTION     16.53  1415.91     0  02:29       0.476        11.3       0.131
  WS02003066           JUNCTION      0.00  1220.18     0  02:27           0         5.5       0.028
  WS02003067           JUNCTION      0.00  1220.22     0  02:27           0         5.5       0.082
  WS02003069           JUNCTION      0.32  1415.47     0  02:30     0.00922        11.3       0.138
  WS02003072           JUNCTION      0.00  1414.92     0  02:30           0        11.3       0.187
  WS02003073           JUNCTION      1.82  1416.97     0  02:31      0.0524        11.3       0.195
  WS02004138           JUNCTION      0.00   380.00     0  00:00           0        5.25       0.054
  WS02004139           JUNCTION      0.32   191.08     0  00:29     0.00924        5.26       0.508
  WS02004401           JUNCTION      0.00  1224.80     0  02:26           0        5.61       0.195
  WS02004402           JUNCTION      0.00  1225.87     0  02:26           0         5.6       0.196
  WS02004403           JUNCTION      0.00  1227.14     0  02:26           0        5.59       0.191
  WS02004404           JUNCTION      0.16  1228.57     0  02:26     0.00467        5.58       0.159
  WS02004405           JUNCTION      0.04  1230.86     0  02:26      0.0011        5.58       0.232
  WS02004406           JUNCTION      0.00  1232.52     0  02:26           0        5.56       0.391
  WS02004407           JUNCTION      0.00  1233.06     0  02:26           0        5.54       0.031
  WS02004409           JUNCTION      0.00  1220.05     0  02:27           0        5.54       0.063
  WS02004410           JUNCTION      0.00  1220.26     0  02:27           0        5.54       0.095
  WS02004411           JUNCTION      0.00  1220.25     0  02:27           0        5.53       0.116
  WS02004412           JUNCTION      0.00  1220.24     0  02:27           0        5.52       0.150
  WS02004413           JUNCTION      0.00  1220.11     0  02:27           0        5.52       0.259
  WS02006109           JUNCTION      1.23  1133.87     0  02:25      0.0354        5.49       0.195
  WS02006110           JUNCTION      0.00  1119.17     0  02:35           0        5.48       0.148
  WS02006111           JUNCTION      0.00  1112.22     0  02:35           0        5.47       0.017
  WS02006112           JUNCTION    123.45  1225.74     0  02:26       0.174        5.64       0.338
  WS02006113           JUNCTION      0.00  1116.84     0  02:35           0        5.47       0.040
  WS02006115           JUNCTION      0.00  1224.86     0  02:27           0        5.62       0.136
  WS02006116           JUNCTION      0.00  1224.18     0  02:27           0        5.62       0.106
  WS02006228           JUNCTION      0.00  1129.95     0  02:25           0        5.46       0.099
  WS02006229           JUNCTION      0.00  1907.31     0  02:27           0        6.17       0.146
  WS02006230           JUNCTION     10.28   815.34     0  02:26       0.296        2.57       0.389
  WS02006231           JUNCTION      0.00   453.24     0  02:27           0        2.11      -0.220
  WS02006232           JUNCTION      0.00   453.32     0  02:28           0        2.12       0.314
  WS02006234           JUNCTION      0.00   453.17     0  02:26           0        2.11      -0.709
  WS02006235           JUNCTION      0.00   454.77     0  03:20           0        2.18       0.755
  WS02006238           JUNCTION      0.00   415.91     0  02:34           0        1.88      -0.357
  WS02006239           JUNCTION      0.00   415.44     0  02:37           0        1.81      -0.218
  WS02006240           JUNCTION      0.00   415.10     0  02:37           0        1.77      -0.015
  WS02006242           JUNCTION      0.00   415.24     0  02:37           0        1.77      -0.005
  WS02006243           JUNCTION      0.00   404.23     0  02:02           0        1.62      -0.184
  WS02006245           JUNCTION      0.00   423.65     0  02:02           0        1.63       0.808
  WS02006247           JUNCTION      0.00   435.35     0  02:02           0        1.63       0.003
  WS02006248           JUNCTION      0.00   449.05     0  02:02           0        1.73      -0.122
  WS02006249           JUNCTION      0.00  1258.47     0  02:30           0         3.1       0.400
  WS02006251           JUNCTION      0.08  1258.50     0  02:30     0.00222        3.16       0.008
  WS02006252           JUNCTION      0.00   400.00     0  00:00           0        1.81      -0.901
  WS02006253           JUNCTION     15.96  1016.60     0  02:28      0.0193        1.34       0.216
  WS02006256           JUNCTION      0.00   300.00     0  00:00           0        0.65      -4.968
  WS02006280           JUNCTION      0.00  1906.36     0  02:27           0        4.33       0.016
  WS02006284           JUNCTION      0.10  1904.80     0  02:27     0.00275        4.33       0.003
  WS02006287           JUNCTION      0.00  1904.07     0  02:26           0        4.33       0.017
  WSF200               JUNCTION      0.00  1220.00     0  02:27           0         5.5       0.016
  YS02001580           JUNCTION      0.00   122.26     0  02:24           0     0.00432      -0.471
  YS02001583           JUNCTION      0.00   197.17     0  02:25           0       0.015      -7.369
  YS02001586           JUNCTION    257.20   260.50     0  02:25       0.592       0.603       0.245
  YS02001590           JUNCTION      0.00   260.72     0  02:25           0       0.589      -0.063
  YS02001593           JUNCTION      0.00   261.34     0  02:25           0        0.59       0.017
  YS02001596           JUNCTION      0.00   262.52     0  02:25           0       0.589      -0.005
  YS02001600           JUNCTION      0.00   263.21     0  02:25           0       0.589       0.006
  YS02001601           JUNCTION    500.36   762.01     0  02:25       0.894        1.48       0.049
  YS02001602           JUNCTION      0.00   539.71     0  02:24           0        1.37       0.031
  YS02001605           JUNCTION      0.00   540.07     0  02:24           0        1.37       0.041
  YS02001607           JUNCTION      0.00   539.99     0  02:24           0        1.37       0.145
  YS02001610           JUNCTION      0.00   534.55     0  02:24           0        1.37       0.173
  YS02001613           JUNCTION      0.00   539.16     0  02:24           0        1.37       0.118
  YS02001616           JUNCTION      0.00   543.88     0  02:24           0        1.37       0.035
  YS02001619           JUNCTION    451.81   940.92     0  02:24       0.921        2.29       0.015
  YS02001622           JUNCTION      0.00   950.41     0  02:24           0        2.29      -0.005
  YS02001625           JUNCTION      0.00   957.13     0  02:24           0        2.29       0.405
  YS02001629           JUNCTION      0.00   959.31     0  02:24           0        2.28       0.017
  YS02001633           JUNCTION    370.39  1265.29     0  02:26       0.633        2.91       0.125
  YS02001641           JUNCTION      0.00  1267.66     0  02:26           0        2.91       0.102
  YS02001644           JUNCTION    332.97  1600.28     0  02:26       0.542        3.44       0.099
  YS02001647           JUNCTION      0.00  1601.27     0  02:26           0        3.44       0.009
  YS02001649           JUNCTION      0.00  1961.54     0  02:26           0        3.91       0.007
  YS02001652           JUNCTION      0.00   391.27     0  02:26           0       0.473      -0.205
  YS02001655           JUNCTION      0.15   334.88     0  02:26     0.00443       0.474       0.166
  YS02001658           JUNCTION      0.00   324.52     0  02:25           0       0.469      -0.017
  YS02001661           JUNCTION      0.00   323.19     0  02:25           0       0.469       0.070
  YS02001664           JUNCTION    323.50   323.50     0  02:25       0.469       0.469      -0.004
  YS02001745           JUNCTION    221.09   221.09     0  02:25       0.304       0.304      -0.001
  YS02001748           JUNCTION      0.04   221.31     0  02:25      0.0013       0.305      -0.010
  YS02001751           JUNCTION      0.01   221.97     0  02:25    0.000317       0.305       0.314
  YS02001754           JUNCTION      0.26   258.98     0  02:29     0.00749       0.312      -0.353
  YS02001757           JUNCTION      0.00  2700.93     0  02:28           0         5.3       0.087
  YS02001759           JUNCTION    303.18   650.20     0  02:28       0.414        1.08      -0.009
  YS02001762           JUNCTION      0.00   417.33     0  02:28           0       0.664       0.021
  YS02001765           JUNCTION      0.00   424.69     0  02:28           0       0.664       0.016
  YS02001767           JUNCTION      0.54   412.06     0  02:29      0.0154       0.664       0.030
  YS02001770           JUNCTION    423.48   423.48     0  02:26        0.65       0.682       0.006
  YS02001774           JUNCTION      0.00   105.50     0  02:26           0      0.0469       2.478
  YS02001779           JUNCTION      0.01    64.33     0  02:27    0.000144      0.0141       0.054
  YS02001783           JUNCTION      0.00  1048.37     0  02:29           0        2.06       0.011
  YS02001784           JUNCTION      1.06  1049.60     0  02:29      0.0305        2.09       0.025
  YS02001786           JUNCTION      0.06  1049.45     0  02:29     0.00162        2.09       0.030
  YS02001788           JUNCTION      0.07  1046.07     0  02:30     0.00204        2.09       0.015
  YS02001790           JUNCTION      0.15  1049.00     0  02:30     0.00446        2.09       0.026
  YS02001791           JUNCTION      0.00  1139.27     0  02:30           0        2.09      -0.000
  YS02001793           JUNCTION      0.00  1080.29     0  02:30           0        2.09       0.010
  YS02001882           JUNCTION      0.00    31.61     0  02:26           0      0.0121       5.406
  YS02001884           JUNCTION      0.00    76.14     0  02:24           0      0.0473       5.408
  YS02001887           JUNCTION    344.15   344.15     0  02:25       0.453       0.485       0.917
  YS02001890           JUNCTION      0.00   328.47     0  02:26           0       0.445       1.156
  YS02001895           JUNCTION      0.00   331.10     0  02:26           0        0.44       0.279
  YS02001898           JUNCTION      0.00   305.80     0  02:27           0       0.439       0.128
  YS02001901           JUNCTION      0.00   311.15     0  02:27           0       0.441       0.703
  YS02001904           JUNCTION      0.00   311.84     0  02:27           0       0.445       0.646
  YS02001907           JUNCTION      0.00   722.05     0  02:32           0        1.46       1.246
  YS02001910           JUNCTION      0.00   545.23     0  02:31           0        1.02       0.696
  YS02001915           JUNCTION    364.70   543.12     0  02:31       0.615        1.03       0.164
  YS02001918           JUNCTION      0.00   250.05     0  02:31           0       0.411       0.072
  YS02001920           JUNCTION      2.87   221.02     0  02:31      0.0827       0.408       0.251
  YS02001923           JUNCTION      0.04   181.33     0  02:30     0.00109       0.325      -0.070
  YS02001926           JUNCTION      0.05   171.39     0  02:26      0.0015       0.325       0.173
  YS02001929           JUNCTION    171.48   171.48     0  02:26       0.323       0.323      -0.002
  YS02006553           JUNCTION      0.00   722.94     0  02:31           0        1.45       0.824
  YS02006556           JUNCTION      0.00   722.45     0  02:31           0        1.45       0.565
  YS02006558           JUNCTION    431.98  1050.49     0  02:29       0.653        2.08       0.168
  YS02006561           JUNCTION      0.00  1050.58     0  02:29           0        2.06       0.005
  YS02163301           JUNCTION      0.00   897.79     0  02:26           0        2.28       0.077
  YS02163601           JUNCTION      0.11  1266.20     0  02:26     0.00317        2.91       0.174
  YS02164001           JUNCTION      0.00  1265.81     0  02:26           0         2.9       0.086
  YSB1154              JUNCTION    174.97   174.97     0  02:26       0.268       0.269       0.538
  YSB1171              JUNCTION      0.00   343.26     0  02:25           0       0.478       1.331
  YSB1174              JUNCTION    160.48   160.48     0  02:25       0.201       0.202       0.632
  YSB6556              JUNCTION      0.00   176.30     0  02:25           0        0.27       0.428
  CC-1                 OUTFALL       0.00   683.00     0  00:00           0        2.35       0.000
  CC-2                 OUTFALL       0.00   683.00     0  00:00           0           2       0.000
  JK-1                 OUTFALL       0.00  1000.00     0  00:00           0        1.21       0.000
  JK-2                 OUTFALL       0.00  1000.00     0  00:00           0       0.361       0.000
  WSC                  OUTFALL       0.00  1417.32     0  02:31           0        11.3       0.000
  CC-storage           STORAGE       0.00  2550.82     0  02:28           0        7.53      -0.349
  JK-storage           STORAGE       0.00  1079.17     0  02:30           0        2.24      -0.759
  XR-storage           STORAGE     200.00   200.00     0  00:00        5.76        6.36       0.001
  
  
  **********************
  Node Surcharge Summary
  **********************
  
  Surcharging occurs when water rises above the top of the highest conduit.
  ---------------------------------------------------------------------
                                               Max. Height   Min. Depth
                                   Hours       Above Crown    Below Rim
  Node                 Type      Surcharged         Meters       Meters
  ---------------------------------------------------------------------
  HS02004478           JUNCTION        0.07          0.516        0.424
  HS02004479           JUNCTION        0.19          0.897        0.153
  HS02004480           JUNCTION        0.22          0.941        0.159
  HS02004770           JUNCTION        0.15          0.720        0.000
  HS02004777           JUNCTION        0.15          0.780        0.000
  HS02004785           JUNCTION        0.10          0.790        0.000
  HS02004788           JUNCTION        0.09          0.720        0.000
  HS02004792           JUNCTION        0.19          0.900        0.000
  HS02004799           JUNCTION        0.28          1.060        0.000
  HS02004802           JUNCTION        0.22          0.731        0.479
  HS02004807           JUNCTION        0.21          0.576        0.644
  HS02004817           JUNCTION        0.57          0.919        0.821
  HS02004824           JUNCTION        0.10          0.491        0.819
  HS02004830           JUNCTION        0.06          0.350        0.980
  HS02004837           JUNCTION        0.01          0.126        1.214
  HS02004842           JUNCTION        0.16          0.643        0.877
  HS02004862           JUNCTION        0.03          0.236        1.064
  HS02004870           JUNCTION        0.06          0.315        1.085
  HS02004876           JUNCTION        0.13          1.035        0.525
  HS02004881           JUNCTION        0.11          0.545        0.905
  HS02004901           JUNCTION        0.15          0.720        0.000
  WS02004401           JUNCTION        0.90          0.835        0.825
  WS02004402           JUNCTION        0.94          0.792        0.948
  WS02004403           JUNCTION        0.94          0.721        1.309
  WS02004404           JUNCTION        1.07          0.723        2.057
  WS02004405           JUNCTION        1.05          0.657        2.143
  WS02004406           JUNCTION        1.04          0.489        1.961
  WS02004409           JUNCTION        0.39          0.297        2.063
  WS02004410           JUNCTION        0.38          0.222        2.318
  WS02004411           JUNCTION        0.35          0.147        2.383
  WS02004412           JUNCTION        0.30          0.064        2.246
  WS02004413           JUNCTION        0.64          0.120        2.080
  WS02006109           JUNCTION        1.45          1.820        0.000
  WS02006110           JUNCTION        1.18          1.431        0.419
  WS02006111           JUNCTION        0.55          0.795        1.075
  WS02006112           JUNCTION        1.27          1.229        0.451
  WS02006113           JUNCTION        0.59          0.929        1.001
  WS02006115           JUNCTION        0.80          0.862        1.388
  WS02006116           JUNCTION        0.82          0.834        1.456
  WS02006228           JUNCTION        1.45          2.200        0.000
  WS02006229           JUNCTION        0.37          1.049        0.021
  WS02006230           JUNCTION        1.07          1.570        0.000
  WS02006231           JUNCTION        1.08          1.491        0.039
  WS02006232           JUNCTION        1.31          1.480        0.000
  WS02006234           JUNCTION        1.09          1.240        0.000
  WS02006235           JUNCTION        1.15          1.290        0.000
  WS02006238           JUNCTION        1.18          1.304        0.126
  WS02006239           JUNCTION        1.05          1.129        0.161
  WS02006240           JUNCTION        1.00          0.968        0.422
  WS02006242           JUNCTION        1.05          0.820        0.000
  WS02006243           JUNCTION        0.94          0.676        0.094
  WS02006245           JUNCTION        0.92          0.578        0.272
  WS02006247           JUNCTION        0.92          0.528        0.232
  WS02006248           JUNCTION        0.90          0.380        0.000
  WS02006249           JUNCTION        0.90          0.390        0.000
  WS02006251           JUNCTION        0.85          1.041        0.139
  WS02006252           JUNCTION        1.07          1.100        0.000
  WS02006253           JUNCTION        0.86          1.592        0.888
  WS02006256           JUNCTION        6.97          2.050        0.000
  WS02006280           JUNCTION        0.29          0.696        0.084
  WS02006284           JUNCTION        0.24          0.622        0.178
  WS02006287           JUNCTION        0.17          0.624        0.266
  YS02001580           JUNCTION        0.06          0.450        0.000
  YS02001583           JUNCTION        0.07          0.500        0.000
  YS02001586           JUNCTION        0.22          0.510        0.000
  YS02001590           JUNCTION        0.27          0.750        0.000
  YS02001593           JUNCTION        0.28          0.840        0.000
  YS02001596           JUNCTION        0.36          1.070        0.000
  YS02001600           JUNCTION        0.45          1.190        0.000
  YS02001601           JUNCTION        0.73          1.440        0.000
  YS02001602           JUNCTION        0.64          1.270        0.000
  YS02001605           JUNCTION        0.59          1.180        0.000
  YS02001607           JUNCTION        0.23          0.680        0.000
  YS02001610           JUNCTION        0.24          0.680        0.000
  YS02001613           JUNCTION        0.22          0.700        0.000
  YS02001616           JUNCTION        0.18          0.610        0.000
  YS02001619           JUNCTION        0.17          0.610        0.000
  YS02001622           JUNCTION        0.16          0.591        0.029
  YS02001625           JUNCTION        0.32          0.780        0.000
  YS02001629           JUNCTION        0.10          0.470        0.000
  YS02001633           JUNCTION        0.32          0.863        0.197
  YS02001641           JUNCTION        0.24          0.394        0.706
  YS02001644           JUNCTION        0.20          0.228        0.692
  YS02001783           JUNCTION        0.16          0.216        1.384
  YS02001784           JUNCTION        0.14          0.133        1.357
  YS02001882           JUNCTION        0.10          0.182        0.648
  YS02001884           JUNCTION        0.12          0.221        0.649
  YS02001887           JUNCTION        0.16          0.316        0.634
  YS02001890           JUNCTION        0.17          0.341        0.419
  YS02001895           JUNCTION        0.09          0.144        0.606
  YS02001898           JUNCTION        0.08          0.122        0.618
  YS02001901           JUNCTION        0.14          0.276        0.594
  YS02001904           JUNCTION        0.13          0.250        0.600
  YS02001907           JUNCTION        0.33          0.578        0.372
  YS02001910           JUNCTION        0.19          0.384        0.716
  YS02001915           JUNCTION        0.11          0.188        0.812
  YS02006553           JUNCTION        0.34          0.577        0.613
  YS02006556           JUNCTION        0.26          0.473        0.877
  YS02006558           JUNCTION        0.25          0.447        0.953
  YS02163301           JUNCTION        0.31          0.932        0.098
  YS02163601           JUNCTION        0.35          0.677        0.403
  YS02164001           JUNCTION        0.26          0.497        0.603
  YSB1154              JUNCTION        0.35          1.251        0.149
  YSB1171              JUNCTION        0.35          1.100        0.000
  YSB1174              JUNCTION        0.30          1.121        0.129
  YSB6556              JUNCTION        0.26          1.100        0.000
  
  
  *********************
  Node Flooding Summary
  *********************
  
  Flooding refers to all water that overflows a node, whether it ponds or not.
  --------------------------------------------------------------------------
                                                             Total   Maximum
                                 Maximum   Time of Max       Flood    Ponded
                        Hours       Rate    Occurrence      Volume     Depth
  Node                 Flooded       LPS   days hr:min    10^6 ltr    Meters
  --------------------------------------------------------------------------
  HS02004770              0.02    137.45      0  02:25       0.006     0.000
  HS02004777              0.01     45.31      0  02:25       0.000     0.000
  HS02004785              0.01     80.44      0  02:25       0.000     0.000
  HS02004788              0.01    287.05      0  02:25       0.002     0.000
  HS02004792              0.01     64.00      0  02:25       0.000     0.000
  HS02004799              0.01     11.43      0  02:25       0.000     0.000
  HS02004901              0.05    128.97      0  02:26       0.014     0.000
  WS02006109              0.01     42.08      0  02:25       0.000     0.000
  WS02006228              0.01      3.85      0  02:25       0.000     0.000
  WS02006230              0.25    362.34      0  02:26       0.170     0.000
  WS02006232              0.07      0.58      0  02:31       0.000     0.000
  WS02006234              0.29    128.45      0  02:29       0.094     0.000
  WS02006235              0.01     10.42      0  02:40       0.000     0.000
  WS02006242              0.34    137.49      0  02:37       0.142     0.000
  WS02006248              0.51    338.66      0  02:37       0.469     0.000
  WS02006249              0.86   1197.98      0  02:30       1.731     0.000
  WS02006252              0.04    245.63      0  00:00       0.005     0.000
  WS02006256              0.60    294.10      0  02:35       0.301     0.000
  YS02001580              0.01     98.08      0  02:25       0.000     0.000
  YS02001583              0.01    148.47      0  02:25       0.000     0.000
  YS02001586              0.01     88.47      0  02:25       0.001     0.000
  YS02001590              0.01     17.13      0  02:23       0.000     0.000
  YS02001593              0.01     24.59      0  02:23       0.000     0.000
  YS02001596              0.01      6.00      0  02:35       0.000     0.000
  YS02001600              0.01     11.58      0  02:35       0.000     0.000
  YS02001601              0.17    324.06      0  02:25       0.108     0.000
  YS02001602              0.01     19.38      0  02:25       0.000     0.000
  YS02001605              0.01      4.84      0  02:24       0.000     0.000
  YS02001610              0.01     31.32      0  02:25       0.000     0.000
  YS02001613              0.01      7.13      0  02:25       0.000     0.000
  YS02001616              0.01     11.04      0  02:25       0.000     0.000
  YS02001619              0.01     10.02      0  02:25       0.000     0.000
  YS02001625              0.01     35.36      0  02:25       0.000     0.000
  YS02001629              0.01    207.16      0  02:24       0.001     0.000
  YSB1171                 0.01     51.46      0  02:25       0.000     0.000
  
  
  **********************
  Storage Volume Summary
  **********************
  
  --------------------------------------------------------------------------------------------------
                         Average     Avg  Evap Exfil       Maximum     Max    Time of Max    Maximum
                          Volume    Pcnt  Pcnt  Pcnt        Volume    Pcnt     Occurrence    Outflow
  Storage Unit           1000 m3    Full  Loss  Loss       1000 m3    Full    days hr:min        LPS
  --------------------------------------------------------------------------------------------------
  CC-storage               1.812      28     0     0         3.555      55       0  02:47    1783.53
  JK-storage               0.067      23     0     0         0.212      73       0  02:33    2300.00
  XR-storage               0.943      65     0     0         1.111      77       0  08:00     380.00
  
  
  ***********************
  Outfall Loading Summary
  ***********************
  
  -----------------------------------------------------------
                         Flow       Avg       Max       Total
                         Freq      Flow      Flow      Volume
  Outfall Node           Pcnt       LPS       LPS    10^6 ltr
  -----------------------------------------------------------
  CC-1                  24.46    683.00    683.00       2.350
  CC-2                  20.80    683.00    683.00       2.004
  JK-1                   8.19   1000.00   1000.00       1.211
  JK-2                   1.83   1000.00   1000.00       0.361
  WSC                   99.95    528.06   1417.32      11.300
  -----------------------------------------------------------
  System                31.05   3894.06   4054.14      17.227
  
  
  ********************
  Link Flow Summary
  ********************
  
  -----------------------------------------------------------------------------
                                 Maximum  Time of Max   Maximum    Max/    Max/
                                  |Flow|   Occurrence   |Veloc|    Full    Full
  Link                 Type          LPS  days hr:min     m/sec    Flow   Depth
  -----------------------------------------------------------------------------
  1                    CONDUIT   1417.32     0  02:31      3.64    0.49    0.50
  HS02004478WS02006287 CONDUIT   1904.07     0  02:26      2.61    0.53    1.00
  HS02004479HS02004480 CONDUIT    354.56     0  02:25      0.51    0.34    1.00
  HS02004480HS02004478 CONDUIT   2050.62     0  02:25      2.93    8.64    1.00
  HS02004770HS02004777 CONDUIT    753.55     0  02:24      1.08    1.38    1.00
  HS02004777HS02004785 CONDUIT    764.90     0  02:24      1.14    0.94    1.00
  HS02004785HS02004788 CONDUIT    665.99     0  02:28      1.35    5.02    1.00
  HS02004788HS02004792 CONDUIT    869.16     0  02:28      1.49    0.58    1.00
  HS02004792HS02004799 CONDUIT   1560.83     0  02:26      2.23    0.96    1.00
  HS02004799HS02004480 CONDUIT   1713.14     0  02:26      2.45    2.16    1.00
  HS02004802HS02004478 CONDUIT    389.52     0  02:37      0.74    0.34    1.00
  HS02004807HS02004802 CONDUIT    352.24     0  02:37      0.64    0.67    1.00
  HS02004817HS02004807 CONDUIT    388.66     0  02:25      0.56    0.23    1.00
  HS02004817HS02004824 CONDUIT    385.15     0  02:25      0.55    0.17    1.00
  HS02004824HS02004830 CONDUIT    609.65     0  02:25      0.91    0.80    1.00
  HS02004830HS02004837 CONDUIT    621.97     0  02:25      0.97    0.62    1.00
  HS02004837HS02004842 CONDUIT    751.48     0  02:26      1.07    0.45    1.00
  HS02004842HS02004848 CONDUIT    751.53     0  02:26      1.19    0.44    0.93
  HS02004848HS02004852 CONDUIT    915.26     0  02:26      1.54    1.03    0.86
  HS02004852HS02004856 CONDUIT    888.30     0  02:27      1.43    1.02    0.96
  HS02004856HS02004862 CONDUIT    954.93     0  02:27      1.67    0.95    0.96
  HS02004862HS02004870 CONDUIT   1050.09     0  02:27      1.91    1.13    1.00
  HS02004870HS02004876 CONDUIT   1109.61     0  02:27      1.88    0.74    1.00
  HS02004876HS02004881 CONDUIT   1136.31     0  02:27      2.50   12.09    1.00
  HS02004881HS02006253 CONDUIT   1005.25     0  02:28      2.47    0.20    1.00
  HS02004901HS02004770 CONDUIT    151.37     0  02:24      0.22    0.57    1.00
  WS02001211WS02001212 CONDUIT    217.56     0  02:46      0.54    0.17    0.67
  WS02001212WS02001213 CONDUIT    224.87     0  02:46      1.04    0.35    0.54
  WS02001213WS02003059 CONDUIT    232.38     0  02:46      0.47    0.38    0.87
  WS02003059WS02003060 CONDUIT    241.87     0  02:45      0.66    0.16    0.79
  WS02003060WS02003069 CONDUIT   1415.15     0  02:30      2.06    0.55    0.59
  WS02003066WSF200     CONDUIT   1220.00     0  02:27      3.27    0.21    0.37
  WS02003067WS02003066 CONDUIT   1220.18     0  02:27      1.93    0.39    0.55
  WS02003069WS02003072 CONDUIT   1414.92     0  02:30      1.85    0.68    0.64
  WS02003072WS02003073 CONDUIT   1415.15     0  02:31      2.01    3.06    0.60
  WS02004138WS02004139 CONDUIT    190.76     0  00:29      2.16    0.04    0.40
  WS02004139WS02001211 CONDUIT    200.25     0  02:46      0.54    0.25    0.59
  WS02004401WS02004402 CONDUIT   1225.87     0  02:26      1.56    1.47    1.00
  WS02004402WS02004403 CONDUIT   1227.14     0  02:26      1.56    1.76    1.00
  WS02004403WS02004404 CONDUIT   1228.41     0  02:26      1.56    0.89    1.00
  WS02004404WS02004405 CONDUIT   1230.83     0  02:26      1.57   12.06    1.00
  WS02004405WS02004406 CONDUIT   1232.52     0  02:26      1.57    2.43    1.00
  WS02004406WS02004407 CONDUIT   1233.06     0  02:26      1.76    0.55    0.90
  WS02004407WS02004409 CONDUIT   1220.05     0  02:27      1.75    0.43    0.90
  WS02004409WS02004410 CONDUIT   1220.26     0  02:27      1.55    1.58    1.00
  WS02004410WS02004411 CONDUIT   1220.25     0  02:27      1.55    1.67    1.00
  WS02004411WS02004412 CONDUIT   1220.24     0  02:27      1.55    1.73    1.00
  WS02004412WS02004413 CONDUIT   1220.11     0  02:27      1.55    0.82    1.00
  WS02004413WS02003067 CONDUIT   1220.22     0  02:27      1.91    0.52    0.76
  WS02006109WS02006110 CONDUIT   1119.17     0  02:35      2.23    2.15    1.00
  WS02006110WS02006113 CONDUIT   1116.84     0  02:35      2.22    1.02    1.00
  WS02006111WS02006112 CONDUIT   1110.01     0  02:27      2.21    0.53    1.00
  WS02006112WS02006115 CONDUIT   1224.86     0  02:27      1.56    0.72    1.00
  WS02006113WS02006111 CONDUIT   1112.22     0  02:35      2.62    1.33    1.00
  WS02006115WS02006116 CONDUIT   1224.18     0  02:27      1.56    1.57    1.00
  WS02006116WS02004401 CONDUIT   1224.80     0  02:26      1.56    1.69    1.00
  WS02006228WS02006109 CONDUIT   1132.64     0  02:25      2.25    4.95    1.00
  WS02006229WS02006228 CONDUIT   1129.95     0  02:25      2.25    3.74    1.00
  WS02006230WS02006229 CONDUIT    805.07     0  02:26      2.09   17.92    1.00
  WS02006231WS02006230 CONDUIT    453.24     0  02:27      1.21    6.88    1.00
  WS02006232WS02006231 CONDUIT    453.32     0  02:28      1.18    0.95    1.00
  WS02006234WS02006232 CONDUIT    453.17     0  02:26      1.41    0.92    1.00
  WS02006235WS02006234 CONDUIT    436.32     0  03:20      1.29    4.60    1.00
  WS02006238WS02006235 CONDUIT    415.91     0  02:34      1.45    0.93    1.00
  WS02006239WS02006238 CONDUIT    415.44     0  02:37      1.11    1.33    1.00
  WS02006240WS02006239 CONDUIT    415.10     0  02:37      1.26    1.31    1.00
  WS02006242WS02006240 CONDUIT    415.24     0  02:37      1.14    1.65    1.00
  WS02006243WS02006242 CONDUIT    396.12     0  02:02      1.34    0.85    1.00
  WS02006245WS02006243 CONDUIT    404.23     0  02:02      1.39    1.20    1.00
  WS02006247WS02006245 CONDUIT    423.65     0  02:02      1.37    3.36    1.00
  WS02006248WS02006247 CONDUIT    435.35     0  02:02      1.38    0.95    1.00
  WS02006249WS02006248 CONDUIT    449.05     0  02:02      1.38    2.46    1.00
  WS02006251WS02006249 CONDUIT   1258.47     0  02:30      3.27    3.63    1.00
  WS02006252WS02006251 CONDUIT    410.90     0  02:20     25.75    1.51    1.00
  WS02006253WS02006251 CONDUIT    994.20     0  02:28      2.58    2.98    1.00
  WS02006256WS02006235 CONDUIT    288.93     0  00:00      4.23    3.06    1.00
  WS02006280WS02006229 CONDUIT   1907.31     0  02:27      4.36    0.41    1.00
  WS02006284WS02006280 CONDUIT   1906.36     0  02:27      3.01    0.80    1.00
  WS02006287WS02006284 CONDUIT   1904.70     0  02:27      2.75    0.88    1.00
  WSF200WS02003060     CONDUIT   1219.54     0  02:27      2.33    0.27    0.48
  YS02001580YS02001583 CONDUIT    122.26     0  02:24      0.78    0.47    1.00
  YS02001583YS02001586 CONDUIT    173.61     0  02:24      0.75    0.26    1.00
  YS02001586YS02001590 CONDUIT    260.72     0  02:25      1.27    0.46    1.00
  YS02001590YS02001593 CONDUIT    261.34     0  02:25      1.02    1.64    1.00
  YS02001593YS02001596 CONDUIT    262.52     0  02:25      1.67    0.41    1.00
  YS02001596YS02001600 CONDUIT    263.21     0  02:25      1.17    0.51    1.00
  YS02001600YS02001601 CONDUIT    263.61     0  02:25      0.93    0.45    1.00
  YS02001601YS02001602 CONDUIT    539.71     0  02:24      1.91    1.95    1.00
  YS02001602YS02001605 CONDUIT    540.07     0  02:24      1.91   11.43    1.00
  YS02001605YS02001607 CONDUIT    539.99     0  02:24      1.91    2.96    1.00
  YS02001607YS02001610 CONDUIT    534.55     0  02:24      0.68    0.51    1.00
  YS02001610YS02001613 CONDUIT    539.16     0  02:24      0.69    0.62    1.00
  YS02001613YS02001616 CONDUIT    543.88     0  02:24      0.70    0.47    1.00
  YS02001616YS02001619 CONDUIT    523.58     0  02:24      0.70    0.91    1.00
  YS02001619YS02001622 CONDUIT    950.41     0  02:24      1.22    1.40    1.00
  YS02001622YS02001625 CONDUIT    957.13     0  02:24      1.22    0.51    1.00
  YS02001625YS02001629 CONDUIT    959.31     0  02:24      1.22    0.46    1.00
  YS02001629YS02163301 CONDUIT    897.79     0  02:26      1.14    1.11    1.00
  YS02001633YS02163601 CONDUIT   1266.09     0  02:26      1.61    1.33    1.00
  YS02001641YS02001644 CONDUIT   1267.75     0  02:26      1.61    4.10    1.00
  YS02001644YS02001647 CONDUIT   1601.27     0  02:26      2.18    0.94    0.92
  YS02001647YS02001649 CONDUIT   1618.62     0  02:27      2.33    0.85    0.88
  YS02001649YS02001757 CONDUIT   1936.51     0  02:26      2.55    1.18    0.96
  YS02001652YS02001649 CONDUIT    396.13     0  02:26      0.68    0.20    0.86
  YS02001655YS02001652 CONDUIT    391.27     0  02:26      1.35    0.19    0.60
  YS02001658YS02001655 CONDUIT    334.72     0  02:26      1.97    0.14    0.37
  YS02001661YS02001658 CONDUIT    324.52     0  02:25      2.15    0.13    0.25
  YS02001664YS02001661 CONDUIT    323.19     0  02:25      1.96    0.10    0.26
  YS02001745YS02001748 CONDUIT    221.26     0  02:25      2.02    0.09    0.20
  YS02001748YS02001751 CONDUIT    221.96     0  02:25      1.70    0.11    0.27
  YS02001751YS02001754 CONDUIT    258.72     0  02:29      1.50    0.12    0.45
  YS02001754YS02001757 CONDUIT    309.70     0  02:28      0.48    0.12    0.79
  YS02001757CaochengTiaoxuchi CONDUIT   2550.82     0  02:28      3.48    1.10    0.96
  YS02001759YS02001757 CONDUIT    643.31     0  02:29      0.87    0.46    0.92
  YS02001762YS02001759 CONDUIT    422.78     0  02:29      0.63    0.49    0.85
  YS02001765YS02001762 CONDUIT    417.33     0  02:28      0.71    0.39    0.82
  YS02001767YS02001765 CONDUIT    424.69     0  02:28      0.80    0.53    0.78
  YS02001770YS02001767 CONDUIT    411.53     0  02:29      0.79    1.63    0.77
  YS02001774YS02001770 CONDUIT    104.32     0  02:26      0.18    0.07    0.80
  YS02001779YS02001774 CONDUIT     64.32     0  02:27      0.12    0.03    0.73
  YS02001783YS02001784 CONDUIT   1048.54     0  02:29      2.09    1.45    1.00
  YS02001784YS02001785 CONDUIT   1049.39     0  02:29      2.10    2.44    0.98
  YS02001786YS02001788 CONDUIT   1046.00     0  02:30      2.35    2.02    0.84
  YS02001788YS02001790 CONDUIT   1048.85     0  02:30      2.55    0.77    0.77
  YS02001790YS02001791 CONDUIT   1139.27     0  02:30      3.28    1.24    0.66
  YS02001791YS02001793 CONDUIT   1080.29     0  02:30      6.51    0.46    0.37
  YS02001793JiankangQianchi CONDUIT   1079.17     0  02:30      2.20    0.09    0.60
  YS02001882YS02001884 CONDUIT     31.61     0  02:26      0.05    0.04    1.00
  YS02001884YS02001887 CONDUIT     76.14     0  02:24      0.10    0.10    1.00
  YS02001887YS02001890 CONDUIT    328.47     0  02:26      0.42    0.56    1.00
  YS02001890YS02001895 CONDUIT    331.10     0  02:26      0.42    0.15    1.00
  YS02001895YS02001898 CONDUIT    305.80     0  02:27      0.40    0.53    1.00
  YS02001898YS02001901 CONDUIT    311.15     0  02:27      0.40    0.20    1.00
  YS02001901YS02001904 CONDUIT    311.84     0  02:27      0.40    0.48    1.00
  YS02001904YS02001907 CONDUIT    313.58     0  02:27      0.40    0.11    1.00
  YS02001907YS02006553 CONDUIT    722.94     0  02:31      0.80    0.85    1.00
  YS02001910YS02001907 CONDUIT    545.83     0  02:31      0.69    0.31    1.00
  YS02001915YS02001910 CONDUIT    545.23     0  02:31      0.69    0.27    1.00
  YS02001918YS02001915 CONDUIT    280.39     0  02:32      0.46    0.15    0.92
  YS02001920YS02001918 CONDUIT    250.05     0  02:31      0.64    0.24    0.88
  YS02001923YS02001920 CONDUIT    218.15     0  02:31      0.71    0.10    0.78
  YS02001926YS02001923 CONDUIT    181.29     0  02:30      0.94    0.26    0.46
  YS02001929YS02001926 CONDUIT    171.33     0  02:26      1.04    0.08    0.33
  YS02006553YS02006556 CONDUIT    722.45     0  02:31      0.92    0.62    1.00
  YS02006556YS02006558 CONDUIT    724.26     0  02:31      0.92    0.57    1.00
  YS02006558YS02006561 CONDUIT   1050.58     0  02:29      3.73    2.32    0.99
  YS02006561YS02001783 CONDUIT   1048.37     0  02:29      2.27    0.54    0.87
  YS02163301YS02001633 CONDUIT    898.26     0  02:26      1.14    0.84    1.00
  YS02163601YS02164001 CONDUIT   1265.81     0  02:26      1.61    1.12    1.00
  YS02164001YS02001641 CONDUIT   1267.66     0  02:26      1.61    1.73    1.00
  YSB1154YSB6556       CONDUIT    176.30     0  02:25      0.46    0.32    1.00
  YSB1171HS02004479    CONDUIT    349.02     0  02:25      0.69    0.23    1.00
  YSB1174YSB1171       CONDUIT    161.71     0  02:25      0.42    0.25    1.00
  YSB6556YSB1171       CONDUIT    182.93     0  02:25      0.48    0.19    1.00
  CC-R1                PUMP       683.00     0  00:00              1.00
  CC-R2                PUMP       683.00     0  00:00              1.00
  CC-S1                PUMP       200.00     0  00:00              1.00
  CC-S2                PUMP       200.00     0  00:00              1.00
  JK-R1                PUMP      1000.00     0  00:00              1.00
  JK-R2                PUMP      1000.00     0  00:00              1.00
  JK-S                 PUMP       300.00     0  00:00              1.00
  XR-1                 PUMP        95.00     0  00:00              1.00
  XR-2                 PUMP        95.00     0  00:00              1.00
  XR-3                 PUMP        95.00     0  00:00              1.00
  XR-4                 PUMP        95.00     0  00:00              1.00
  
  
  ***************************
  Flow Classification Summary
  ***************************
  
  -------------------------------------------------------------------------------------
                      Adjusted    ---------- Fraction of Time in Flow Class ---------- 
                       /Actual         Up    Down  Sub   Sup   Up    Down  Norm  Inlet 
  Conduit               Length    Dry  Dry   Dry   Crit  Crit  Crit  Crit  Ltd   Ctrl  
  -------------------------------------------------------------------------------------
  1                       1.00   0.00  0.00  0.00  0.00  1.00  0.00  0.00  0.25  0.00
  HS02004478WS02006287    1.00   0.12  0.00  0.00  0.56  0.32  0.00  0.00  0.65  0.00
  HS02004479HS02004480    1.00   0.05  0.00  0.00  0.95  0.00  0.00  0.00  0.13  0.00
  HS02004480HS02004478    1.00   0.10  0.00  0.00  0.44  0.00  0.00  0.46  0.00  0.00
  HS02004770HS02004777    1.00   0.00  0.09  0.00  0.91  0.00  0.00  0.00  0.04  0.00
  HS02004777HS02004785    1.00   0.00  0.00  0.00  1.00  0.00  0.00  0.00  0.16  0.00
  HS02004785HS02004788    1.00   0.00  0.00  0.00  1.00  0.00  0.00  0.00  0.00  0.00
  HS02004788HS02004792    1.00   0.00  0.00  0.00  0.99  0.01  0.00  0.00  0.95  0.00
  HS02004792HS02004799    1.00   0.00  0.00  0.00  0.98  0.02  0.00  0.00  0.93  0.00
  HS02004799HS02004480    1.00   0.00  0.05  0.00  0.88  0.00  0.06  0.00  0.00  0.00
  HS02004802HS02004478    1.00   0.10  0.01  0.00  0.90  0.00  0.00  0.00  0.03  0.00
  HS02004807HS02004802    1.00   0.09  0.00  0.00  0.90  0.00  0.00  0.01  0.00  0.00
  HS02004817HS02004807    1.00   0.00  0.09  0.00  0.91  0.00  0.00  0.00  0.01  0.00
  HS02004817HS02004824    1.00   0.00  0.00  0.00  1.00  0.00  0.00  0.00  0.90  0.00
  HS02004824HS02004830    1.00   0.00  0.00  0.00  1.00  0.00  0.00  0.00  0.01  0.00
  HS02004830HS02004837    1.00   0.00  0.00  0.00  1.00  0.00  0.00  0.00  0.94  0.00
  HS02004837HS02004842    1.00   0.00  0.00  0.00  1.00  0.00  0.00  0.00  0.11  0.00
  HS02004842HS02004848    1.00   0.00  0.09  0.00  0.90  0.00  0.00  0.00  0.62  0.00
  HS02004848HS02004852    1.00   0.10  0.00  0.00  0.90  0.00  0.00  0.00  0.69  0.00
  HS02004852HS02004856    1.00   0.09  0.01  0.00  0.90  0.00  0.00  0.00  0.75  0.00
  HS02004856HS02004862    1.00   0.00  0.13  0.00  0.87  0.00  0.00  0.00  0.76  0.00
  HS02004862HS02004870    1.00   0.00  0.00  0.00  1.00  0.00  0.00  0.00  0.06  0.00
  HS02004870HS02004876    1.00   0.00  0.00  0.00  0.99  0.01  0.00  0.00  0.92  0.00
  HS02004876HS02004881    1.00   0.04  0.00  0.00  0.78  0.19  0.00  0.00  0.00  0.00
  HS02004881HS02006253    1.00   0.03  0.03  0.00  0.38  0.05  0.00  0.50  0.17  0.00
  HS02004901HS02004770    1.00   0.09  0.00  0.00  0.91  0.00  0.00  0.00  0.01  0.00
  WS02001211WS02001212    1.00   0.00  0.04  0.00  0.96  0.00  0.00  0.00  0.00  0.00
  WS02001212WS02001213    1.00   0.04  0.00  0.00  0.41  0.00  0.55  0.00  0.00  0.00
  WS02001213WS02003059    1.00   0.00  0.00  0.00  0.99  0.00  0.00  0.00  0.00  0.00
  WS02003059WS02003060    1.00   0.00  0.00  0.00  1.00  0.00  0.00  0.00  0.03  0.00
  WS02003060WS02003069    1.00   0.00  0.00  0.00  0.99  0.01  0.00  0.00  0.54  0.00
  WS02003066WSF200        1.00   0.07  0.00  0.00  0.00  0.93  0.00  0.00  0.75  0.00
  WS02003067WS02003066    1.00   0.07  0.00  0.00  0.93  0.00  0.00  0.00  0.00  0.00
  WS02003069WS02003072    1.00   0.00  0.00  0.00  1.00  0.00  0.00  0.00  0.75  0.00
  WS02003072WS02003073    1.00   0.00  0.00  0.00  0.00  0.00  0.00  1.00  0.00  0.00
  WS02004138WS02004139    1.00   0.00  0.01  0.00  0.96  0.01  0.00  0.02  0.98  0.00
  WS02004139WS02001211    1.00   0.00  0.00  0.00  0.99  0.00  0.00  0.00  0.00  0.00
  WS02004401WS02004402    1.00   0.04  0.00  0.00  0.96  0.00  0.00  0.00  0.00  0.00
  WS02004402WS02004403    1.00   0.04  0.00  0.00  0.96  0.00  0.00  0.00  0.00  0.00
  WS02004403WS02004404    1.00   0.00  0.04  0.00  0.95  0.00  0.00  0.00  0.00  0.00
  WS02004404WS02004405    1.00   0.00  0.00  0.00  1.00  0.00  0.00  0.00  0.01  0.00
  WS02004405WS02004406    1.00   0.00  0.00  0.00  1.00  0.00  0.00  0.00  0.00  0.00
  WS02004406WS02004407    1.00   0.00  0.05  0.00  0.94  0.00  0.00  0.00  0.00  0.00
  WS02004407WS02004409    1.00   0.06  0.00  0.00  0.94  0.00  0.00  0.00  0.91  0.00
  WS02004409WS02004410    1.00   0.06  0.00  0.00  0.94  0.00  0.00  0.00  0.00  0.00
  WS02004410WS02004411    1.00   0.06  0.00  0.00  0.94  0.00  0.00  0.00  0.00  0.00
  WS02004411WS02004412    1.00   0.06  0.00  0.00  0.94  0.00  0.00  0.00  0.00  0.00
  WS02004412WS02004413    1.00   0.06  0.00  0.00  0.94  0.00  0.00  0.00  0.01  0.00
  WS02004413WS02003067    1.00   0.06  0.01  0.00  0.00  0.00  0.93  0.00  0.00  0.00
  WS02006109WS02006110    1.00   0.00  0.01  0.00  0.97  0.00  0.03  0.00  0.00  0.00
  WS02006110WS02006113    1.00   0.01  0.03  0.00  0.97  0.00  0.00  0.00  0.00  0.00
  WS02006111WS02006112    1.00   0.04  0.00  0.00  0.96  0.00  0.00  0.00  0.85  0.00
  WS02006112WS02006115    1.00   0.04  0.00  0.00  0.96  0.00  0.00  0.00  0.00  0.00
  WS02006113WS02006111    1.00   0.03  0.00  0.00  0.16  0.80  0.00  0.00  0.06  0.00
  WS02006115WS02006116    1.00   0.04  0.00  0.00  0.95  0.00  0.00  0.01  0.00  0.00
  WS02006116WS02004401    1.00   0.04  0.00  0.00  0.96  0.00  0.00  0.00  0.00  0.00
  WS02006228WS02006109    1.00   0.00  0.00  0.00  1.00  0.00  0.00  0.00  0.00  0.00
  WS02006229WS02006228    1.00   0.00  0.00  0.00  0.99  0.00  0.00  0.01  0.00  0.00
  WS02006230WS02006229    1.00   0.00  0.00  0.00  0.98  0.00  0.00  0.02  0.04  0.00
  WS02006231WS02006230    1.00   0.00  0.00  0.00  0.47  0.00  0.53  0.00  0.00  0.00
  WS02006232WS02006231    1.00   0.00  0.00  0.00  0.99  0.00  0.01  0.00  0.00  0.00
  WS02006234WS02006232    1.00   0.00  0.00  0.00  1.00  0.00  0.00  0.00  0.06  0.00
  WS02006235WS02006234    1.00   0.00  0.00  0.00  0.91  0.00  0.09  0.00  0.00  0.00
  WS02006238WS02006235    1.00   0.00  0.00  0.00  1.00  0.00  0.00  0.00  0.00  0.00
  WS02006239WS02006238    1.00   0.00  0.00  0.00  1.00  0.00  0.00  0.00  0.14  0.00
  WS02006240WS02006239    1.00   0.00  0.00  0.00  0.75  0.00  0.00  0.25  0.04  0.00
  WS02006242WS02006240    1.00   0.00  0.00  0.00  0.99  0.00  0.00  0.00  0.00  0.00
  WS02006243WS02006242    1.00   0.00  0.00  0.00  0.99  0.00  0.00  0.00  0.73  0.00
  WS02006245WS02006243    1.00   0.00  0.00  0.00  0.82  0.00  0.00  0.18  0.00  0.00
  WS02006247WS02006245    1.00   0.00  0.00  0.00  0.98  0.00  0.00  0.02  0.00  0.00
  WS02006248WS02006247    1.00   0.00  0.00  0.00  0.99  0.00  0.00  0.01  0.67  0.00
  WS02006249WS02006248    1.00   0.00  0.00  0.00  0.54  0.00  0.45  0.00  0.00  0.00
  WS02006251WS02006249    1.00   0.00  0.00  0.00  1.00  0.00  0.00  0.00  0.68  0.00
  WS02006252WS02006251    1.00   0.00  0.45  0.00  0.18  0.00  0.37  0.00  0.00  0.00
  WS02006253WS02006251    1.00   0.00  0.00  0.00  1.00  0.00  0.00  0.00  0.01  0.00
  WS02006256WS02006235    1.00   0.00  0.00  0.00  0.98  0.02  0.00  0.00  0.00  0.00
  WS02006280WS02006229    1.00   0.10  0.00  0.00  0.10  0.05  0.00  0.75  0.00  0.00
  WS02006284WS02006280    1.00   0.10  0.00  0.00  0.07  0.01  0.00  0.82  0.00  0.00
  WS02006287WS02006284    1.00   0.08  0.03  0.00  0.40  0.49  0.00  0.00  0.71  0.00
  WSF200WS02003060        1.00   0.00  0.07  0.00  0.54  0.39  0.00  0.00  0.72  0.00
  YS02001580YS02001583    1.00   0.31  0.43  0.00  0.26  0.00  0.00  0.00  0.66  0.00
  YS02001583YS02001586    1.00   0.29  0.37  0.00  0.35  0.00  0.00  0.00  0.67  0.00
  YS02001586YS02001590    1.00   0.09  0.00  0.00  0.59  0.04  0.00  0.28  0.36  0.00
  YS02001590YS02001593    1.00   0.10  0.01  0.00  0.08  0.00  0.82  0.00  0.00  0.00
  YS02001593YS02001596    1.00   0.10  0.00  0.00  0.10  0.01  0.00  0.79  0.01  0.00
  YS02001596YS02001600    1.00   0.10  0.00  0.00  0.19  0.03  0.00  0.68  0.05  0.00
  YS02001600YS02001601    1.00   0.10  0.01  0.00  0.90  0.00  0.00  0.00  0.67  0.00
  YS02001601YS02001602    1.00   0.09  0.01  0.00  0.90  0.00  0.00  0.00  0.00  0.00
  YS02001602YS02001605    1.00   0.10  0.00  0.00  0.90  0.00  0.00  0.00  0.00  0.00
  YS02001605YS02001607    1.00   0.10  0.00  0.00  0.90  0.00  0.00  0.00  0.00  0.00
  YS02001607YS02001610    1.00   0.10  0.01  0.00  0.90  0.00  0.00  0.00  0.03  0.00
  YS02001610YS02001613    1.00   0.10  0.00  0.00  0.90  0.00  0.00  0.00  0.02  0.00
  YS02001613YS02001616    1.00   0.10  0.00  0.00  0.90  0.00  0.00  0.00  0.01  0.00
  YS02001616YS02001619    1.00   0.09  0.00  0.00  0.91  0.00  0.00  0.00  0.00  0.00
  YS02001619YS02001622    1.00   0.09  0.00  0.00  0.91  0.00  0.00  0.00  0.30  0.00
  YS02001622YS02001625    1.00   0.09  0.00  0.00  0.91  0.00  0.00  0.00  0.08  0.00
  YS02001625YS02001629    1.00   0.10  0.04  0.00  0.13  0.00  0.73  0.00  0.00  0.00
  YS02001629YS02163301    1.00   0.12  0.01  0.00  0.87  0.00  0.00  0.00  0.00  0.00
  YS02001633YS02163601    1.00   0.00  0.01  0.00  0.99  0.00  0.00  0.00  0.17  0.00
  YS02001641YS02001644    1.00   0.00  0.00  0.00  1.00  0.00  0.00  0.00  0.00  0.00
  YS02001644YS02001647    1.00   0.00  0.14  0.00  0.86  0.00  0.00  0.00  0.00  0.00
  YS02001647YS02001649    1.00   0.00  0.14  0.00  0.40  0.46  0.00  0.00  0.59  0.00
  YS02001649YS02001757    1.00   0.00  0.00  0.00  0.53  0.47  0.00  0.00  0.53  0.00
  YS02001652YS02001649    1.00   0.00  0.00  0.00  0.97  0.03  0.00  0.00  0.84  0.00
  YS02001655YS02001652    1.00   0.00  0.00  0.00  0.14  0.02  0.00  0.83  0.06  0.00
  YS02001658YS02001655    1.00   0.00  0.11  0.00  0.41  0.48  0.00  0.00  0.80  0.00
  YS02001661YS02001658    1.00   0.11  0.00  0.00  0.26  0.63  0.00  0.00  0.74  0.00
  YS02001664YS02001661    1.00   0.09  0.00  0.00  0.76  0.14  0.00  0.00  0.87  0.00
  YS02001745YS02001748    1.00   0.00  0.00  0.00  0.00  0.00  0.00  1.00  0.00  0.00
  YS02001748YS02001751    1.00   0.00  0.00  0.00  0.57  0.43  0.00  0.00  0.87  0.00
  YS02001751YS02001754    1.00   0.00  0.00  0.00  0.10  0.01  0.00  0.89  0.04  0.00
  YS02001754YS02001757    1.00   0.00  0.00  0.00  1.00  0.00  0.00  0.00  0.92  0.00
  YS02001757CaochengTiaoxuchi    1.00   0.00  0.00  0.00  0.94  0.06  0.00  0.00  0.90  0.00
  YS02001759YS02001757    1.00   0.00  0.00  0.00  1.00  0.00  0.00  0.00  0.67  0.00
  YS02001762YS02001759    1.00   0.00  0.00  0.00  1.00  0.00  0.00  0.00  0.08  0.00
  YS02001765YS02001762    1.00   0.00  0.00  0.00  1.00  0.00  0.00  0.00  0.82  0.00
  YS02001767YS02001765    1.00   0.00  0.00  0.00  1.00  0.00  0.00  0.00  0.00  0.00
  YS02001770YS02001767    1.00   0.00  0.00  0.00  1.00  0.00  0.00  0.00  0.00  0.00
  YS02001774YS02001770    1.00   0.00  0.10  0.00  0.79  0.00  0.11  0.00  0.06  0.00
  YS02001779YS02001774    1.00   0.00  0.00  0.00  1.00  0.00  0.00  0.00  0.87  0.00
  YS02001783YS02001784    1.00   0.00  0.15  0.00  0.85  0.00  0.00  0.00  0.57  0.00
  YS02001784YS02001785    1.00   0.00  0.00  0.00  1.00  0.00  0.00  0.00  0.21  0.00
  YS02001786YS02001788    1.00   0.00  0.00  0.00  0.58  0.42  0.00  0.00  0.00  0.00
  YS02001788YS02001790    1.00   0.00  0.00  0.00  0.16  0.84  0.00  0.00  0.88  0.00
  YS02001790YS02001791    1.00   0.00  0.00  0.00  0.02  0.98  0.00  0.00  0.13  0.00
  YS02001791YS02001793    1.00   0.00  0.00  0.00  0.00  1.00  0.00  0.00  0.00  0.00
  YS02001793JiankangQianchi    1.00   0.00  0.00  0.00  1.00  0.00  0.00  0.00  1.00  0.00
  YS02001882YS02001884    1.00   0.11  0.01  0.00  0.88  0.00  0.00  0.00  0.00  0.00
  YS02001884YS02001887    1.00   0.07  0.02  0.00  0.91  0.00  0.00  0.00  0.00  0.00
  YS02001887YS02001890    1.00   0.00  0.00  0.00  0.95  0.00  0.05  0.00  0.00  0.00
  YS02001890YS02001895    1.00   0.00  0.13  0.00  0.87  0.00  0.00  0.00  0.00  0.00
  YS02001895YS02001898    1.00   0.13  0.00  0.00  0.84  0.00  0.02  0.00  0.00  0.00
  YS02001898YS02001901    1.00   0.12  0.01  0.00  0.86  0.00  0.00  0.00  0.01  0.00
  YS02001901YS02001904    1.00   0.12  0.00  0.00  0.88  0.00  0.00  0.00  0.00  0.00
  YS02001904YS02001907    1.00   0.00  0.12  0.00  0.88  0.00  0.00  0.00  0.00  0.00
  YS02001907YS02006553    1.00   0.00  0.04  0.00  0.96  0.00  0.00  0.00  0.00  0.00
  YS02001910YS02001907    1.00   0.00  0.00  0.00  0.95  0.00  0.00  0.04  0.13  0.00
  YS02001915YS02001910    1.00   0.00  0.00  0.00  0.96  0.04  0.00  0.00  0.20  0.00
  YS02001918YS02001915    1.00   0.00  0.00  0.00  0.96  0.04  0.00  0.00  0.80  0.00
  YS02001920YS02001918    1.00   0.00  0.00  0.00  1.00  0.00  0.00  0.00  0.00  0.00
  YS02001923YS02001920    1.00   0.00  0.00  0.00  1.00  0.00  0.00  0.00  0.97  0.00
  YS02001926YS02001923    1.00   0.00  0.07  0.00  0.02  0.00  0.91  0.00  0.00  0.00
  YS02001929YS02001926    1.00   0.00  0.09  0.00  0.91  0.00  0.00  0.00  0.87  0.00
  YS02006553YS02006556    1.00   0.02  0.00  0.00  0.98  0.00  0.00  0.00  0.03  0.00
  YS02006556YS02006558    1.00   0.00  0.00  0.00  1.00  0.00  0.00  0.00  0.00  0.00
  YS02006558YS02006561    1.00   0.15  0.00  0.00  0.01  0.84  0.00  0.00  0.18  0.00
  YS02006561YS02001783    1.00   0.15  0.00  0.00  0.06  0.79  0.00  0.00  0.71  0.00
  YS02163301YS02001633    1.00   0.00  0.12  0.00  0.88  0.00  0.00  0.00  0.00  0.00
  YS02163601YS02164001    1.00   0.00  0.07  0.00  0.93  0.00  0.00  0.00  0.00  0.00
  YS02164001YS02001641    1.00   0.01  0.07  0.00  0.92  0.00  0.00  0.00  0.06  0.00
  YSB1154YSB6556          1.00   0.09  0.00  0.00  0.91  0.00  0.00  0.00  0.02  0.00
  YSB1171HS02004479       1.00   0.05  0.00  0.00  0.94  0.00  0.00  0.01  0.11  0.00
  YSB1174YSB1171          1.00   0.06  0.02  0.00  0.92  0.00  0.00  0.00  0.00  0.00
  YSB6556YSB1171          1.00   0.05  0.04  0.00  0.91  0.00  0.00  0.00  0.00  0.00
  
  
  *************************
  Conduit Surcharge Summary
  *************************
  
  ----------------------------------------------------------------------------
                                                           Hours        Hours 
                         --------- Hours Full --------   Above Full   Capacity
  Conduit                Both Ends  Upstream  Dnstream   Normal Flow   Limited
  ----------------------------------------------------------------------------
  HS02004478WS02006287        0.07      0.07      0.22      0.01         0.01
  HS02004479HS02004480        0.22      0.22      0.24      0.01         0.01
  HS02004480HS02004478        0.18      0.22      0.18      1.01         0.18
  HS02004770HS02004777        0.14      0.15      0.15      0.12         0.07
  HS02004777HS02004785        0.10      0.10      0.15      0.01         0.01
  HS02004785HS02004788        0.09      0.10      0.09      0.71         0.09
  HS02004788HS02004792        0.09      0.09      0.19      0.01         0.01
  HS02004792HS02004799        0.19      0.19      0.28      0.01         0.01
  HS02004799HS02004480        0.22      0.22      0.28      0.32         0.01
  HS02004802HS02004478        0.18      0.18      0.23      0.01         0.01
  HS02004807HS02004802        0.21      0.21      0.22      0.01         0.01
  HS02004817HS02004807        0.21      0.21      0.57      0.01         0.01
  HS02004817HS02004824        0.10      0.10      0.57      0.01         0.01
  HS02004824HS02004830        0.06      0.06      0.10      0.01         0.01
  HS02004830HS02004837        0.01      0.01      0.06      0.01         0.01
  HS02004837HS02004842        0.01      0.01      0.16      0.01         0.01
  HS02004842HS02004848        0.01      0.01      0.16      0.01         0.01
  HS02004848HS02004852        0.01      0.01      0.01      0.01         0.01
  HS02004852HS02004856        0.01      0.01      0.01      0.01         0.01
  HS02004856HS02004862        0.01      0.01      0.03      0.01         0.01
  HS02004862HS02004870        0.03      0.03      0.06      0.01         0.01
  HS02004870HS02004876        0.06      0.06      0.13      0.01         0.01
  HS02004876HS02004881        0.11      0.13      0.11      0.74         0.11
  HS02004881HS02006253        0.11      0.11      0.86      0.01         0.01
  HS02004901HS02004770        0.15      0.15      0.15      0.01         0.01
  WS02003072WS02003073        0.01      0.01      0.01      1.67         0.01
  WS02004401WS02004402        0.90      0.90      0.94      0.71         0.71
  WS02004402WS02004403        0.94      0.94      0.94      0.89         0.88
  WS02004403WS02004404        0.94      0.94      1.07      0.01         0.01
  WS02004404WS02004405        1.05      1.07      1.05      2.11         1.05
  WS02004405WS02004406        1.04      1.05      1.04      1.21         1.04
  WS02004406WS02004407        0.01      0.01      1.04      0.01         0.01
  WS02004407WS02004409        0.01      0.01      0.39      0.01         0.01
  WS02004409WS02004410        0.38      0.39      0.38      0.79         0.38
  WS02004410WS02004411        0.35      0.38      0.35      0.84         0.35
  WS02004411WS02004412        0.30      0.35      0.30      0.88         0.30
  WS02004412WS02004413        0.30      0.30      0.64      0.01         0.01
  WS02004413WS02003067        0.01      0.01      0.64      0.01         0.01
  WS02006109WS02006110        1.18      1.18      1.49      1.18         0.01
  WS02006110WS02006113        0.59      0.59      1.47      0.17         0.01
  WS02006111WS02006112        0.55      0.55      1.60      0.01         0.01
  WS02006112WS02006115        0.80      0.80      1.27      0.01         0.01
  WS02006113WS02006111        0.58      0.59      0.58      0.69         0.58
  WS02006115WS02006116        0.81      0.81      0.82      0.79         0.78
  WS02006116WS02004401        0.89      0.89      0.90      0.85         0.85
  WS02006228WS02006109        1.45      1.49      1.45      1.67         1.45
  WS02006229WS02006228        1.45      1.46      1.45      1.56         1.45
  WS02006230WS02006229        1.52      1.54      1.52      2.49         1.01
  WS02006231WS02006230        1.07      1.07      1.09      1.92         0.48
  WS02006232WS02006231        1.08      1.08      1.31      0.01         0.05
  WS02006234WS02006232        1.16      1.16      1.31      0.01         0.01
  WS02006235WS02006234        1.09      1.09      1.14      1.75         0.44
  WS02006238WS02006235        1.17      1.17      1.22      0.01         0.12
  WS02006239WS02006238        1.12      1.12      1.18      0.52         0.19
  WS02006240WS02006239        1.03      1.03      1.05      0.52         0.17
  WS02006242WS02006240        1.00      1.00      1.10      0.86         0.34
  WS02006243WS02006242        0.95      0.95      1.05      0.01         0.01
  WS02006245WS02006243        0.92      0.92      0.94      0.21         0.15
  WS02006247WS02006245        0.92      0.93      0.92      1.51         0.44
  WS02006248WS02006247        0.90      0.90      0.92      0.01         0.01
  WS02006249WS02006248        0.90      0.90      0.90      0.88         0.01
  WS02006251WS02006249        0.90      0.90      0.90      0.93         0.84
  WS02006252WS02006251        1.04      1.04      1.06      0.94         0.01
  WS02006253WS02006251        0.89      0.89      0.90      0.33         0.01
  WS02006256WS02006235        1.92      1.95      6.87      0.45         0.01
  WS02006280WS02006229        0.30      0.30      0.37      0.01         0.01
  WS02006284WS02006280        0.24      0.24      0.29      0.01         0.01
  WS02006287WS02006284        0.17      0.17      0.24      0.01         0.01
  YS02001580YS02001583        0.06      0.06      0.11      0.01         0.01
  YS02001583YS02001586        0.07      0.07      0.22      0.01         0.01
  YS02001586YS02001590        0.23      0.23      0.27      0.01         0.01
  YS02001590YS02001593        0.28      0.28      0.29      0.28         0.01
  YS02001593YS02001596        0.29      0.29      0.36      0.01         0.01
  YS02001596YS02001600        0.39      0.39      0.45      0.01         0.01
  YS02001600YS02001601        0.50      0.50      0.73      0.01         0.01
  YS02001601YS02001602        0.64      0.64      0.77      0.47         0.01
  YS02001602YS02001605        0.59      0.59      0.64      1.60         0.01
  YS02001605YS02001607        0.56      0.59      0.56      0.70         0.56
  YS02001607YS02001610        0.23      0.23      0.24      0.01         0.01
  YS02001610YS02001613        0.22      0.22      0.24      0.01         0.01
  YS02001613YS02001616        0.18      0.18      0.22      0.01         0.01
  YS02001616YS02001619        0.17      0.17      0.18      0.01         0.01
  YS02001619YS02001622        0.16      0.17      0.16      0.30         0.16
  YS02001622YS02001625        0.16      0.16      0.32      0.01         0.01
  YS02001625YS02001629        0.10      0.10      0.32      0.01         0.01
  YS02001629YS02163301        0.30      0.30      0.31      0.21         0.17
  YS02001633YS02163601        0.32      0.32      0.35      0.23         0.23
  YS02001641YS02001644        0.20      0.24      0.20      0.82         0.20
  YS02001644YS02001647        0.01      0.01      0.20      0.01         0.01
  YS02001649YS02001757        0.01      0.01      0.01      0.11         0.01
  YS02001757CaochengTiaoxuchi        0.01      0.01      0.60      0.11         0.01
  YS02001770YS02001767        0.01      0.01      0.01      0.21         0.01
  YS02001783YS02001784        0.14      0.16      0.14      0.28         0.14
  YS02001784YS02001785        0.01      0.14      0.01      0.43         0.01
  YS02001786YS02001788        0.01      0.01      0.01      0.35         0.01
  YS02001790YS02001791        0.01      0.01      0.01      0.12         0.01
  YS02001793JiankangQianchi        0.01      0.01      6.26      0.01         0.01
  YS02001882YS02001884        0.10      0.10      0.12      0.01         0.01
  YS02001884YS02001887        0.15      0.15      0.16      0.01         0.01
  YS02001887YS02001890        0.17      0.17      0.18      0.01         0.01
  YS02001890YS02001895        0.09      0.09      0.19      0.01         0.01
  YS02001895YS02001898        0.08      0.08      0.09      0.01         0.01
  YS02001898YS02001901        0.10      0.10      0.14      0.01         0.01
  YS02001901YS02001904        0.13      0.13      0.14      0.01         0.01
  YS02001904YS02001907        0.13      0.13      0.34      0.01         0.01
  YS02001907YS02006553        0.44      0.44      0.48      0.01         0.01
  YS02001910YS02001907        0.19      0.19      0.33      0.01         0.01
  YS02001915YS02001910        0.11      0.11      0.19      0.01         0.01
  YS02001918YS02001915        0.01      0.01      0.11      0.01         0.01
  YS02006553YS02006556        0.26      0.26      0.34      0.01         0.01
  YS02006556YS02006558        0.30      0.30      0.35      0.01         0.01
  YS02006558YS02006561        0.01      0.25      0.01      0.40         0.01
  YS02006561YS02001783        0.01      0.01      0.16      0.01         0.01
  YS02163301YS02001633        0.31      0.31      0.34      0.01         0.01
  YS02163601YS02164001        0.26      0.26      0.35      0.13         0.01
  YS02164001YS02001641        0.24      0.26      0.24      0.38         0.24
  YSB1154YSB6556              0.26      0.26      0.35      0.01         0.01
  YSB1171HS02004479           0.19      0.19      0.35      0.01         0.01
  YSB1174YSB1171              0.30      0.30      0.50      0.01         0.01
  YSB6556YSB1171              0.26      0.26      0.61      0.01         0.01
  
  
  ***************
  Pumping Summary
  ***************
  
  ---------------------------------------------------------------------------------------------------------
                                                  Min       Avg       Max     Total     Power    % Time Off
                        Percent   Number of      Flow      Flow      Flow    Volume     Usage    Pump Curve
  Pump                 Utilized   Start-Ups       LPS       LPS       LPS  10^6 ltr     Kw-hr    Low   High
  ---------------------------------------------------------------------------------------------------------
  CC-R1                   12.02          29      0.00    683.00    683.00     2.364     41.39    0.0   56.1
  CC-R2                   10.25          28      0.00    683.00    683.00     2.017     34.59    0.0   74.4
  CC-S1                   17.37          27      0.00    200.00    200.00     1.001      6.90    0.0    0.0
  CC-S2                   14.04          28      0.00    200.00    200.00     0.808      5.67    0.0    0.0
  JK-R1                    4.20          14      0.00   1000.00   1000.00     1.211     10.38    0.0    0.0
  JK-R2                    1.25          11      0.00   1000.00   1000.00     0.361      2.61    0.0    0.0
  JK-S                     7.43          36      0.00    300.00    300.00     0.642     11.46    0.0    0.0
  XR-1                    97.91           2      0.00     95.00     95.00     2.679      9.61    0.0    0.0
  XR-2                    93.94           2      0.00     95.00     95.00     2.570      8.77    0.0    0.0
  XR-3                     0.00           1      0.00     95.00     95.00     0.000      0.00    0.0    0.0
  XR-4                     0.00           1      0.00     95.00     95.00     0.000      0.00    0.0    0.0
  

  Analysis begun on:  Fri Feb 24 05:44:13 2023
  Analysis ended on:  Fri Feb 24 05:44:16 2023
  Total elapsed time: 00:00:03