
  OWA STORM WATER MANAGEMENT MODEL - VERSION v5.1.14 (OWA 2023-01-25)
  --------------------------------------------------------------

  WARNING 04: minimum elevation drop used for Conduit WS02004404WS02004405
  WARNING 03: negative offset ignored for Link YS02001904YS02001907
  
  *********************************************************
  NOTE: The summary statistics displayed in this report are
  based on results found at every computational time step,  
  not just on results from each reporting time step.
  *********************************************************
  
  ****************
  Analysis Options
  ****************
  Flow Units ............... LPS
  Process Models:
    Rainfall/Runoff ........ YES
    RDII ................... NO
    Snowmelt ............... NO
    Groundwater ............ NO
    Flow Routing ........... YES
    Ponding Allowed ........ NO
    Water Quality .......... NO
  Infiltration Method ...... HORTON
  Flow Routing Method ...... DYNWAVE
  Surcharge Method ......... EXTRAN
  Starting Date ............ 08/28/2015 08:00:00
  Ending Date .............. 08/28/2015 16:00:00
  Antecedent Dry Days ...... 8.0
  Report Time Step ......... 00:01:00
  Wet Time Step ............ 00:01:00
  Dry Time Step ............ 00:01:00
  Routing Time Step ........ 30.00 sec
  Variable Time Step ....... YES
  Maximum Trials ........... 8
  Number of Threads ........ 1
  Head Tolerance ........... 0.001500 m
  
  
  **************************        Volume         Depth
  Runoff Quantity Continuity     hectare-m            mm
  **************************     ---------       -------
  Total Precipitation ......         2.455        40.527
  Evaporation Loss .........         0.000         0.000
  Infiltration Loss ........         0.227         3.739
  Surface Runoff ...........         2.168        35.790
  Final Storage ............         0.061         1.006
  Continuity Error (%) .....        -0.022
  
  
  **************************        Volume        Volume
  Flow Routing Continuity        hectare-m      10^6 ltr
  **************************     ---------     ---------
  Dry Weather Inflow .......         0.630         6.296
  Wet Weather Inflow .......         2.168        21.681
  Groundwater Inflow .......         0.000         0.000
  RDII Inflow ..............         0.000         0.000
  External Inflow ..........         0.105         1.045
  External Outflow .........         2.107        21.074
  Flooding Loss ............         0.787         7.867
  Evaporation Loss .........         0.000         0.000
  Exfiltration Loss ........         0.000         0.000
  Initial Stored Volume ....         0.303         3.031
  Final Stored Volume ......         0.322         3.218
  Continuity Error (%) .....        -0.333
  
  
  *************************
  Highest Continuity Errors
  *************************
  Node YS02001884 (5.26%)
  Node YS02001583 (-4.25%)
  Node WS02006256 (-3.75%)
  Node HS02004842 (2.19%)
  Node YS02001774 (2.01%)
  
  
  ***************************
  Time-Step Critical Elements
  ***************************
  Link WS02006280WS02006229 (48.32%)
  Link WS02006252WS02006251 (14.88%)
  Link WS02006238WS02006235 (12.06%)
  Link WS02004404WS02004405 (4.94%)
  Link YS02001791YS02001793 (4.81%)
  
  
  ********************************
  Highest Flow Instability Indexes
  ********************************
  Link WS02006113WS02006111 (24)
  Link WS02006256WS02006235 (23)
  Link WS02004404WS02004405 (23)
  Link WS02006252WS02006251 (20)
  Link WS02006229WS02006228 (19)
  
  
  *************************
  Routing Time Step Summary
  *************************
  Minimum Time Step           :     0.01 sec
  Average Time Step           :     2.49 sec
  Maximum Time Step           :     6.46 sec
  Percent in Steady State     :    -0.00
  Average Iterations per Step :     3.54
  Percent Not Converging      :    16.35
  
  
  ***************************
  Subcatchment Runoff Summary
  ***************************
  
  ------------------------------------------------------------------------------------------------------------------------------
                            Total      Total      Total      Total     Imperv       Perv      Total       Total     Peak  Runoff
                           Precip      Runon       Evap      Infil     Runoff     Runoff     Runoff      Runoff   Runoff   Coeff
  Subcatchment                 mm         mm         mm         mm         mm         mm         mm    10^6 ltr      LPS
  ------------------------------------------------------------------------------------------------------------------------------
  sub0                      40.53       0.00       0.00       0.92      36.44       1.91      38.35        0.03    25.40   0.946
  sub1                      40.53       0.00       0.00       1.59      34.82       2.87      37.68        0.25   169.58   0.930
  sub10                     40.53       0.00       0.00       1.12      36.00       2.13      38.13        0.42   290.66   0.941
  sub11                     40.53       0.00       0.00       1.10      36.02       2.15      38.16        0.44   324.66   0.942
  sub12                     40.53       0.00       0.00       1.78      34.08       3.49      37.57        0.33   261.60   0.927
  sub14                     40.53       0.00       0.00       1.26      35.62       2.39      38.01        0.36   258.13   0.938
  sub15                     40.53       0.00       0.00       5.01      27.40       7.15      34.55        0.59   389.92   0.852
  sub16                     40.53       0.00       0.00       5.16      26.24       8.22      34.46        0.36   265.91   0.850
  sub17                     40.53       0.00       0.00       5.03      26.63       7.94      34.57        0.30   215.71   0.853
  sub2                      40.53       0.00       0.00       7.12      24.63       7.88      32.50        0.30   169.70   0.802
  sub22                     40.53       0.00       0.00       7.59      22.32       9.83      32.15        2.03  1294.17   0.793
  sub23                     40.53       0.00       0.00       6.19      24.67       8.81      33.47        1.60  1080.59   0.826
  sub3                      40.53       0.00       0.00       7.67      24.59       7.33      31.91        0.72   362.96   0.788
  sub4                      40.53       0.00       0.00       1.80      34.65       2.66      37.31        0.78   404.06   0.921
  sub5                      40.53       0.00       0.00       0.97      36.38       1.86      38.25        0.43   293.29   0.944
  sub60                     40.53       0.00       0.00       1.69      34.46       3.18      37.64        0.49   367.92   0.929
  sub61                     40.53       0.00       0.00       2.45      32.50       4.44      36.94        0.68   509.77   0.911
  sub62                     40.53       0.00       0.00       1.12      35.99       2.12      38.11        1.04   710.94   0.940
  sub63                     40.53       0.00       0.00       4.58      27.80       7.17      34.97        0.79   564.76   0.863
  sub64                     40.53       0.00       0.00       2.31      33.24       3.77      37.01        0.89   572.00   0.913
  sub65                     40.53       0.00       0.00       2.00      34.00       3.27      37.27        1.03   639.44   0.920
  sub66                     40.53       0.00       0.00       5.66      27.70       6.10      33.79        1.58   817.39   0.834
  sub67                     40.53       0.00       0.00       1.07      36.04       2.17      38.20        0.71   556.39   0.943
  sub68                     40.53       0.00       0.00       2.04      33.66       3.64      37.30        1.03   730.88   0.920
  sub69                     40.53       0.00       0.00       1.80      34.33       4.28      38.61        1.43   852.42   0.953
  sub7                      40.53       0.00       0.00       1.23      35.63       2.42      38.05        0.13    96.27   0.939
  sub70                     40.53       0.00       0.00       6.00      26.58       7.78      34.36        0.99   458.27   0.848
  sub71                     40.53       0.00       0.00       1.16      35.95       2.08      38.04        0.99   621.23   0.939
  sub72                     40.53       0.00       0.00       1.03      36.28       1.80      38.09        0.52   299.15   0.940
  sub8                      40.53       0.00       0.00       1.25      35.62       2.40      38.02        0.24   175.90   0.938
  sub9                      40.53       0.00       0.00       1.25      35.62       2.40      38.02        0.18   131.32   0.938
  
  
  ******************
  Node Depth Summary
  ******************
  
  ---------------------------------------------------------------------------------
                                 Average  Maximum  Maximum  Time of Max    Reported
                                   Depth    Depth      HGL   Occurrence   Max Depth
  Node                 Type       Meters   Meters   Meters  days hr:min      Meters
  ---------------------------------------------------------------------------------
  HS02004478           JUNCTION     0.18     1.62    10.84     0  02:23        1.52
  HS02004479           JUNCTION     0.26     1.72    10.93     0  02:23        1.66
  HS02004480           JUNCTION     0.22     1.71    10.95     0  02:23        1.62
  HS02004770           JUNCTION     0.23     1.42    11.25     0  02:20        1.42
  HS02004777           JUNCTION     0.26     1.48    11.28     0  02:20        1.45
  HS02004785           JUNCTION     0.15     1.49    11.39     0  02:20        1.33
  HS02004788           JUNCTION     0.12     1.42    11.32     0  02:20        1.32
  HS02004792           JUNCTION     0.16     1.60    11.12     0  02:20        1.60
  HS02004799           JUNCTION     0.28     1.76    10.97     0  02:23        1.76
  HS02004802           JUNCTION     0.28     1.82    10.95     0  02:23        1.68
  HS02004807           JUNCTION     0.25     1.92    11.09     0  02:23        1.71
  HS02004817           JUNCTION     0.55     2.42    11.27     0  02:23        2.07
  HS02004824           JUNCTION     0.12     1.99    11.39     0  02:23        1.54
  HS02004830           JUNCTION     0.13     1.99    11.46     0  02:23        1.49
  HS02004837           JUNCTION     0.10     1.94    11.52     0  02:23        1.39
  HS02004842           JUNCTION     0.40     2.22    11.49     0  02:23        1.70
  HS02004848           JUNCTION     0.08     2.00    11.60     0  02:23        1.37
  HS02004852           JUNCTION     0.09     2.09    11.61     0  02:23        1.42
  HS02004856           JUNCTION     0.15     2.07    11.50     0  02:23        2.07
  HS02004862           JUNCTION     0.10     2.00    11.38     0  02:23        1.45
  HS02004870           JUNCTION     0.09     2.00    11.29     0  02:23        1.45
  HS02004876           JUNCTION     0.14     2.10    11.13     0  02:23        1.57
  HS02004881           JUNCTION     0.08     1.83    10.86     0  02:23        1.40
  HS02004901           JUNCTION     0.24     1.42    11.24     0  02:20        1.42
  WS02001211           JUNCTION     0.63     0.80     5.64     0  02:28        0.80
  WS02001212           JUNCTION     0.37     0.56     5.63     0  02:29        0.56
  WS02001213           JUNCTION     0.58     0.86     5.62     0  02:27        0.86
  WS02003059           JUNCTION     0.65     0.93     5.62     0  02:27        0.93
  WS02003060           JUNCTION     0.37     0.68     5.61     0  02:27        0.68
  WS02003066           JUNCTION     0.22     0.45     6.00     0  02:26        0.45
  WS02003067           JUNCTION     0.53     0.88     6.20     0  02:25        0.88
  WS02003069           JUNCTION     0.41     0.77     5.35     0  02:28        0.77
  WS02003072           JUNCTION     0.47     0.80     5.17     0  02:28        0.80
  WS02003073           JUNCTION     0.28     0.51     4.57     0  02:29        0.51
  WS02004138           JUNCTION     0.13     0.14     7.39     0  00:29        0.14
  WS02004139           JUNCTION     0.57     0.74     5.65     0  02:28        0.74
  WS02004401           JUNCTION     0.72     1.79     7.79     0  02:25        1.78
  WS02004402           JUNCTION     0.74     1.74     7.70     0  02:25        1.73
  WS02004403           JUNCTION     0.75     1.66     7.59     0  02:26        1.65
  WS02004404           JUNCTION     0.82     1.68     7.53     0  02:25        1.67
  WS02004405           JUNCTION     0.80     1.63     7.48     0  02:25        1.63
  WS02004406           JUNCTION     0.80     1.52     7.35     0  02:25        1.51
  WS02004407           JUNCTION     0.24     0.88     7.19     0  02:25        0.87
  WS02004409           JUNCTION     0.49     1.35     7.12     0  02:25        1.35
  WS02004410           JUNCTION     0.51     1.27     6.99     0  02:26        1.27
  WS02004411           JUNCTION     0.51     1.18     6.86     0  02:25        1.18
  WS02004412           JUNCTION     0.52     1.09     6.73     0  02:25        1.09
  WS02004413           JUNCTION     0.66     1.14     6.61     0  02:25        1.13
  WS02006109           JUNCTION     0.90     2.64     9.26     0  02:20        2.64
  WS02006110           JUNCTION     0.85     2.37     8.95     0  02:25        2.35
  WS02006111           JUNCTION     0.37     1.66     8.37     0  02:25        1.66
  WS02006112           JUNCTION     0.92     2.29     8.17     0  02:25        2.27
  WS02006113           JUNCTION     0.44     1.77     8.67     0  02:24        1.77
  WS02006115           JUNCTION     0.63     1.87     8.01     0  02:24        1.87
  WS02006116           JUNCTION     0.71     1.87     7.91     0  02:25        1.86
  WS02006228           JUNCTION     0.94     3.03     9.68     0  02:23        3.01
  WS02006229           JUNCTION     0.94     3.25     9.94     0  02:23        3.20
  WS02006230           JUNCTION     0.88     2.65     9.39     0  02:17        2.65
  WS02006231           JUNCTION     0.62     2.19     9.31     0  02:40        2.19
  WS02006232           JUNCTION     0.71     2.18     9.22     0  02:17        2.18
  WS02006234           JUNCTION     0.60     1.96     9.12     0  02:02        1.96
  WS02006235           JUNCTION     0.61     1.97     9.13     0  02:45        1.94
  WS02006238           JUNCTION     0.63     1.98     9.12     0  02:45        1.95
  WS02006239           JUNCTION     0.57     1.87     9.08     0  02:02        1.82
  WS02006240           JUNCTION     0.53     1.80     9.09     0  02:02        1.67
  WS02006242           JUNCTION     0.57     1.55     8.82     0  02:02        1.55
  WS02006243           JUNCTION     0.47     1.48     8.90     0  02:02        1.38
  WS02006245           JUNCTION     0.45     1.39     8.87     0  02:02        1.27
  WS02006247           JUNCTION     0.46     1.31     8.81     0  02:02        1.23
  WS02006248           JUNCTION     0.41     1.10     8.69     0  02:02        1.10
  WS02006249           JUNCTION     0.44     1.09     8.69     0  02:02        1.09
  WS02006251           JUNCTION     0.51     2.20     9.87     0  02:22        2.07
  WS02006252           JUNCTION     0.35     1.50     9.74     0  00:00        1.50
  WS02006253           JUNCTION     0.57     3.04    10.68     0  02:23        2.71
  WS02006256           JUNCTION     0.93     2.35     9.28     0  00:00        2.35
  WS02006280           JUNCTION     0.24     1.78    10.05     0  02:23        1.71
  WS02006284           JUNCTION     0.51     1.99    10.38     0  02:23        1.90
  WS02006287           JUNCTION     0.25     1.77    10.73     0  02:23        1.67
  WSF200               JUNCTION     0.21     0.51     5.74     0  02:26        0.51
  YS02001580           JUNCTION     0.06     1.05     9.59     0  02:19        0.78
  YS02001583           JUNCTION     0.09     1.04     9.53     0  02:19        0.85
  YS02001586           JUNCTION     0.15     1.13     9.30     0  02:19        1.13
  YS02001590           JUNCTION     0.24     1.38     9.24     0  02:19        1.37
  YS02001593           JUNCTION     0.17     1.29     9.15     0  02:32        1.29
  YS02001596           JUNCTION     0.24     1.66     9.07     0  02:19        1.65
  YS02001600           JUNCTION     0.30     1.87     9.00     0  02:31        1.87
  YS02001601           JUNCTION     0.50     2.06     8.90     0  02:19        2.06
  YS02001602           JUNCTION     0.41     1.87     8.77     0  02:19        1.87
  YS02001605           JUNCTION     0.38     1.78     8.68     0  02:31        1.78
  YS02001607           JUNCTION     0.38     1.65     8.49     0  02:28        1.64
  YS02001610           JUNCTION     0.42     1.68     8.48     0  02:19        1.68
  YS02001613           JUNCTION     0.38     1.65     8.49     0  02:23        1.65
  YS02001616           JUNCTION     0.31     1.59     8.50     0  02:22        1.58
  YS02001619           JUNCTION     0.29     1.58     8.51     0  02:23        1.57
  YS02001622           JUNCTION     0.28     1.56     8.46     0  02:22        1.56
  YS02001625           JUNCTION     0.54     1.78     8.38     0  02:22        1.78
  YS02001629           JUNCTION     0.39     1.85     8.40     0  02:23        1.85
  YS02001633           JUNCTION     0.47     2.00     8.46     0  02:24        1.98
  YS02001641           JUNCTION     0.45     1.95     8.39     0  02:24        1.93
  YS02001644           JUNCTION     0.45     1.92     8.35     0  02:24        1.92
  YS02001647           JUNCTION     0.23     1.74     8.35     0  02:24        1.67
  YS02001649           JUNCTION     0.26     1.88     8.27     0  02:24        1.82
  YS02001652           JUNCTION     0.15     1.76     8.35     0  02:24        1.63
  YS02001655           JUNCTION     0.11     1.73     8.58     0  02:24        1.39
  YS02001658           JUNCTION     0.08     1.67     8.81     0  02:24        1.13
  YS02001661           JUNCTION     0.12     0.95     8.36     0  02:25        0.88
  YS02001664           JUNCTION     0.05     0.37     8.29     0  02:25        0.36
  YS02001745           JUNCTION     0.04     0.66     8.18     0  02:25        0.62
  YS02001748           JUNCTION     0.07     1.45     8.53     0  02:25        1.02
  YS02001751           JUNCTION     0.09     1.47     8.35     0  02:25        1.20
  YS02001754           JUNCTION     0.13     1.59     8.20     0  02:25        1.46
  YS02001757           JUNCTION     0.27     1.85     8.12     0  02:25        1.80
  YS02001759           JUNCTION     0.21     1.80     8.16     0  02:25        1.78
  YS02001762           JUNCTION     0.21     1.79     8.19     0  02:25        1.79
  YS02001765           JUNCTION     0.19     1.77     8.22     0  02:26        1.77
  YS02001767           JUNCTION     0.19     1.78     8.27     0  02:25        1.78
  YS02001770           JUNCTION     0.20     1.84     8.34     0  02:25        1.83
  YS02001774           JUNCTION     0.27     1.95     8.37     0  02:23        1.92
  YS02001779           JUNCTION     0.11     1.68     8.37     0  02:23        1.67
  YS02001783           JUNCTION     0.21     1.29     7.43     0  02:22        1.22
  YS02001784           JUNCTION     0.23     1.16     7.23     0  02:22        1.10
  YS02001786           JUNCTION     0.20     0.90     6.93     0  02:22        0.87
  YS02001788           JUNCTION     0.14     0.62     6.60     0  02:24        0.62
  YS02001790           JUNCTION     0.17     0.72     6.37     0  02:24        0.72
  YS02001791           JUNCTION     0.11     0.44     5.91     0  02:25        0.42
  YS02001793           JUNCTION     0.06     0.31     5.14     0  02:25        0.28
  YS02001882           JUNCTION     0.26     1.65     8.36     0  02:22        1.63
  YS02001884           JUNCTION     0.35     1.74     8.36     0  02:22        1.72
  YS02001887           JUNCTION     0.43     1.81     8.35     0  02:22        1.80
  YS02001890           JUNCTION     0.46     1.81     8.32     0  02:22        1.81
  YS02001895           JUNCTION     0.23     1.61     8.36     0  02:22        1.56
  YS02001898           JUNCTION     0.24     1.63     8.37     0  02:22        1.55
  YS02001901           JUNCTION     0.35     1.73     8.34     0  02:22        1.67
  YS02001904           JUNCTION     0.33     1.67     8.30     0  02:22        1.64
  YS02001907           JUNCTION     0.65     1.96     8.25     0  02:22        1.96
  YS02001910           JUNCTION     0.45     1.96     8.47     0  02:23        1.84
  YS02001915           JUNCTION     0.26     1.91     8.63     0  02:23        1.69
  YS02001918           JUNCTION     0.13     1.81     8.88     0  02:23        1.40
  YS02001920           JUNCTION     0.21     2.14     9.15     0  02:23        1.49
  YS02001923           JUNCTION     0.09     2.03     9.29     0  02:23        1.25
  YS02001926           JUNCTION     0.14     1.90     9.35     0  02:23        1.08
  YS02001929           JUNCTION     0.07     1.78     9.47     0  02:23        0.86
  YS02006553           JUNCTION     0.65     1.97     8.25     0  02:23        1.96
  YS02006556           JUNCTION     0.62     1.94     8.25     0  02:24        1.93
  YS02006558           JUNCTION     0.67     1.98     8.25     0  02:23        1.97
  YS02006561           JUNCTION     0.13     0.98     7.64     0  02:22        0.88
  YS02163301           JUNCTION     0.41     1.91     8.43     0  02:24        1.89
  YS02163601           JUNCTION     0.51     2.03     8.43     0  02:24        1.99
  YS02164001           JUNCTION     0.44     1.95     8.41     0  02:24        1.92
  YSB1154              JUNCTION     0.39     1.89    10.94     0  02:23        1.88
  YSB1171              JUNCTION     0.54     1.95    10.85     0  02:23        1.95
  YSB1174              JUNCTION     0.34     1.80    10.91     0  02:23        1.79
  YSB6556              JUNCTION     0.29     1.74    10.91     0  02:23        1.73
  CC-1                 OUTFALL      0.00     0.00     0.00     0  00:00        0.00
  CC-2                 OUTFALL      0.00     0.00     0.00     0  00:00        0.00
  JK-1                 OUTFALL      0.00     0.00     0.00     0  00:00        0.00
  JK-2                 OUTFALL      0.00     0.00     0.00     0  00:00        0.00
  WSC                  OUTFALL      0.28     0.51     1.18     0  02:29        0.51
  CC-storage           STORAGE      0.68     1.40     6.90     0  02:53        1.40
  JK-storage           STORAGE      1.41     4.24     5.04     0  02:24        4.18
  XR-storage           STORAGE      7.89     9.26     7.26     0  08:00        9.26
  
  
  *******************
  Node Inflow Summary
  *******************
  
  -------------------------------------------------------------------------------------------------
                                  Maximum  Maximum                  Lateral       Total        Flow
                                  Lateral    Total  Time of Max      Inflow      Inflow     Balance
                                   Inflow   Inflow   Occurrence      Volume      Volume       Error
  Node                 Type           LPS      LPS  days hr:min    10^6 ltr    10^6 ltr     Percent
  -------------------------------------------------------------------------------------------------
  HS02004478           JUNCTION      0.00  2255.30     0  02:25           0        6.26      -0.014
  HS02004479           JUNCTION      0.00   462.02     0  02:23           0       0.658       0.107
  HS02004480           JUNCTION      0.00  2103.80     0  02:21           0        4.78       0.061
  HS02004770           JUNCTION   1080.59  1080.59     0  02:25         1.6         1.8       0.172
  HS02004777           JUNCTION      0.03   749.30     0  02:19    0.000864        1.44       0.358
  HS02004785           JUNCTION      0.15   767.06     0  02:19     0.00432        1.44       0.033
  HS02004788           JUNCTION    391.59   849.14     0  02:20       0.642        2.08      -0.011
  HS02004792           JUNCTION   1294.45  2025.20     0  02:25        2.04        4.12       0.006
  HS02004799           JUNCTION    258.13  1735.90     0  02:21       0.362        4.14       0.057
  HS02004802           JUNCTION      0.00   790.01     0  02:25           0        1.51       0.264
  HS02004807           JUNCTION    324.66   789.49     0  02:25       0.443        1.56       0.265
  HS02004817           JUNCTION      0.60   474.72     0  02:26      0.0173        1.17       1.419
  HS02004824           JUNCTION    404.11   655.80     0  02:21        0.78        1.31       0.027
  HS02004830           JUNCTION      0.15   652.56     0  02:21     0.00432        0.67       0.201
  HS02004837           JUNCTION    297.01   846.78     0  02:20       0.603       0.934       0.058
  HS02004842           JUNCTION      0.00   865.80     0  02:21           0         0.6       2.238
  HS02004848           JUNCTION    362.96  1088.86     0  02:21       0.718        1.18       0.005
  HS02004852           JUNCTION      0.00  1069.60     0  02:22           0        1.05       0.007
  HS02004856           JUNCTION    131.32  1180.57     0  02:22       0.183        1.23       0.040
  HS02004862           JUNCTION    169.90  1210.93     0  02:22       0.309        1.54      -0.061
  HS02004870           JUNCTION    175.90  1345.95     0  02:22       0.243        1.78       0.012
  HS02004876           JUNCTION    169.58  1334.10     0  02:23       0.251        2.03       0.042
  HS02004881           JUNCTION     96.27  1419.83     0  02:23       0.128        2.16       0.009
  HS02004901           JUNCTION    265.91   487.06     0  02:26       0.361       0.504       0.351
  WS02001211           JUNCTION      7.35   209.19     0  02:55       0.212        5.44       0.611
  WS02001212           JUNCTION      0.00   218.10     0  02:54           0        5.41       0.290
  WS02001213           JUNCTION      0.00   223.00     0  02:54           0        5.39       0.333
  WS02003059           JUNCTION      0.00   231.12     0  02:53           0        5.38       0.597
  WS02003060           JUNCTION     16.53  1473.05     0  02:27       0.476        12.7       0.118
  WS02003066           JUNCTION      0.00  1271.80     0  02:26           0        6.84       0.024
  WS02003067           JUNCTION      0.00  1271.44     0  02:26           0        6.84       0.066
  WS02003069           JUNCTION      0.32  1473.00     0  02:28     0.00922        12.7       0.124
  WS02003072           JUNCTION      0.00  1472.83     0  02:28           0        12.6       0.168
  WS02003073           JUNCTION      1.82  1474.78     0  02:28      0.0524        12.7       0.175
  WS02004138           JUNCTION      0.00   380.00     0  00:00           0        5.25       0.053
  WS02004139           JUNCTION      0.32   190.59     0  00:29     0.00924        5.26       0.508
  WS02004401           JUNCTION      0.00  1272.64     0  02:25           0        6.96       0.159
  WS02004402           JUNCTION      0.00  1272.27     0  02:25           0        6.94       0.159
  WS02004403           JUNCTION      0.00  1272.76     0  02:25           0        6.93       0.154
  WS02004404           JUNCTION      0.16  1273.00     0  02:25     0.00467        6.93       0.142
  WS02004405           JUNCTION      0.04  1273.31     0  02:25      0.0011        6.92       0.173
  WS02004406           JUNCTION      0.00  1273.69     0  02:25           0        6.91       0.318
  WS02004407           JUNCTION      0.00  1273.23     0  02:25           0        6.89       0.024
  WS02004409           JUNCTION      0.00  1271.22     0  02:26           0        6.88       0.052
  WS02004410           JUNCTION      0.00  1271.58     0  02:25           0        6.88       0.077
  WS02004411           JUNCTION      0.00  1271.32     0  02:26           0        6.87       0.095
  WS02004412           JUNCTION      0.00  1271.31     0  02:26           0        6.87       0.122
  WS02004413           JUNCTION      0.00  1271.17     0  02:25           0        6.86       0.216
  WS02006109           JUNCTION      1.23  1265.14     0  02:25      0.0354        6.82       0.166
  WS02006110           JUNCTION      0.00  1122.57     0  02:34           0         6.7       0.122
  WS02006111           JUNCTION      0.00  1122.68     0  02:34           0        6.69       0.012
  WS02006112           JUNCTION    215.71  1272.54     0  02:25       0.297        6.99       0.302
  WS02006113           JUNCTION      0.00  1122.61     0  02:34           0        6.69       0.030
  WS02006115           JUNCTION      0.00  1272.36     0  02:24           0        6.97       0.114
  WS02006116           JUNCTION      0.00  1272.41     0  02:25           0        6.96       0.059
  WS02006228           JUNCTION      0.00  1264.15     0  02:25           0        6.79       0.071
  WS02006229           JUNCTION      0.00  2257.54     0  02:25           0        8.21       0.117
  WS02006230           JUNCTION     10.28  1002.52     0  02:25       0.296        3.43       0.303
  WS02006231           JUNCTION      0.00   493.49     0  03:25           0        2.62      -0.155
  WS02006232           JUNCTION      0.00   493.72     0  03:25           0        2.62       0.268
  WS02006234           JUNCTION      0.00   493.78     0  03:25           0        2.61      -0.435
  WS02006235           JUNCTION      0.00   493.58     0  03:25           0        2.67       0.549
  WS02006238           JUNCTION      0.00   415.67     0  02:35           0        2.38      -0.131
  WS02006239           JUNCTION      0.00   415.12     0  02:36           0         2.3      -0.213
  WS02006240           JUNCTION      0.00   414.91     0  02:35           0        2.27       0.048
  WS02006242           JUNCTION      0.00   414.79     0  02:19           0        2.26       0.004
  WS02006243           JUNCTION      0.00   408.68     0  02:02           0        2.01      -0.461
  WS02006245           JUNCTION      0.00   436.23     0  02:02           0        2.03       0.669
  WS02006247           JUNCTION      0.00   459.00     0  02:02           0        2.02      -0.034
  WS02006248           JUNCTION      0.00   509.54     0  02:02           0        2.18      -0.157
  WS02006249           JUNCTION      0.00  1337.26     0  02:23           0        4.43       0.232
  WS02006251           JUNCTION      0.08  1447.67     0  02:23     0.00222        4.49      -0.027
  WS02006252           JUNCTION      0.00   436.61     0  02:25           0        2.42      -0.514
  WS02006253           JUNCTION     25.40  1445.37     0  02:23      0.0311        2.24       0.095
  WS02006256           JUNCTION      0.00   300.00     0  00:00           0       0.873      -3.614
  WS02006280           JUNCTION      0.00  2256.07     0  02:25           0        6.24       0.003
  WS02006284           JUNCTION      0.10  2255.60     0  02:25     0.00275        6.24       0.013
  WS02006287           JUNCTION      0.00  2255.41     0  02:25           0        6.24       0.013
  WSF200               JUNCTION      0.00  1271.93     0  02:26           0        6.84       0.012
  YS02001580           JUNCTION      0.00   114.63     0  02:19           0     0.00396      -5.117
  YS02001583           JUNCTION      0.00   159.60     0  02:19           0      0.0151      -4.077
  YS02001586           JUNCTION    458.27   458.39     0  02:26       0.993           1       0.131
  YS02001590           JUNCTION      0.00   318.19     0  02:31           0       0.926      -0.032
  YS02001593           JUNCTION      0.00   318.17     0  02:31           0       0.927       0.019
  YS02001596           JUNCTION      0.00   318.11     0  02:30           0       0.927       0.003
  YS02001600           JUNCTION      0.00   318.03     0  02:34           0       0.926       0.023
  YS02001601           JUNCTION    852.42  1169.73     0  02:26        1.43        2.36       0.040
  YS02001602           JUNCTION      0.00   514.44     0  02:19           0        1.76       0.029
  YS02001605           JUNCTION      0.00   514.26     0  02:19           0         1.7       0.036
  YS02001607           JUNCTION      0.00   513.93     0  02:19           0         1.7       0.117
  YS02001610           JUNCTION      0.00   516.95     0  02:18           0         1.7       0.140
  YS02001613           JUNCTION      0.00   519.22     0  02:18           0        1.53       0.115
  YS02001616           JUNCTION      0.00   514.34     0  02:19           0        1.53       0.027
  YS02001619           JUNCTION    817.39   930.60     0  02:22        1.58        3.11      -0.001
  YS02001622           JUNCTION      0.00   930.17     0  02:22           0        3.11       0.006
  YS02001625           JUNCTION      0.00   929.80     0  02:22           0        3.11       0.291
  YS02001629           JUNCTION      0.00   929.77     0  02:22           0        2.81       0.033
  YS02001633           JUNCTION    639.64  1393.83     0  02:22        1.03        3.83       0.093
  YS02001641           JUNCTION      0.00  1389.06     0  02:22           0        3.83       0.075
  YS02001644           JUNCTION    572.04  1809.90     0  02:22        0.89        4.72       0.073
  YS02001647           JUNCTION      0.00  1811.55     0  02:22           0         4.7       0.007
  YS02001649           JUNCTION      0.00  2057.66     0  02:22           0         5.5       0.009
  YS02001652           JUNCTION      0.00   646.87     0  02:26           0       0.799      -0.117
  YS02001655           JUNCTION      0.15   646.29     0  02:26     0.00443       0.798      -0.102
  YS02001658           JUNCTION      0.00   728.38     0  02:24           0       0.794      -0.007
  YS02001661           JUNCTION      0.00   673.30     0  02:26           0       0.794       0.030
  YS02001664           JUNCTION    564.76   564.76     0  02:25       0.794       0.794      -0.007
  YS02001745           JUNCTION    367.93   367.93     0  02:25       0.495       0.495       0.288
  YS02001748           JUNCTION      0.04   568.89     0  02:25      0.0013       0.495      -0.504
  YS02001751           JUNCTION      0.01   474.45     0  02:23    0.000317       0.502       0.142
  YS02001754           JUNCTION      0.26   435.68     0  02:26     0.00749       0.513      -0.317
  YS02001757           JUNCTION      0.00  3390.83     0  02:26           0        7.75       0.069
  YS02001759           JUNCTION    509.81  1236.34     0  02:25       0.679        1.74      -0.008
  YS02001762           JUNCTION      0.00   727.37     0  02:25           0        1.06       0.004
  YS02001765           JUNCTION      0.00   726.02     0  02:25           0        1.06       0.002
  YS02001767           JUNCTION      0.54   724.48     0  02:25      0.0154        1.06      -0.001
  YS02001770           JUNCTION    711.09   718.04     0  02:25        1.05        1.09       0.004
  YS02001774           JUNCTION      0.00   307.56     0  02:23           0      0.0594       2.052
  YS02001779           JUNCTION      0.01   310.88     0  02:23    0.000144      0.0176      -4.567
  YS02001783           JUNCTION      0.00  1154.10     0  02:25           0        2.94       0.008
  YS02001784           JUNCTION      1.06  1155.57     0  02:25      0.0305        2.97       0.017
  YS02001786           JUNCTION      0.06  1155.15     0  02:25     0.00162        2.97       0.022
  YS02001788           JUNCTION      0.07  1155.44     0  02:25     0.00204        2.97       0.010
  YS02001790           JUNCTION      0.15  1165.61     0  02:24     0.00446        2.97       0.023
  YS02001791           JUNCTION      0.00  1289.57     0  02:24           0        2.97      -0.019
  YS02001793           JUNCTION      0.00  1254.44     0  02:25           0        2.97       0.007
  YS02001882           JUNCTION      0.00    40.36     0  02:21           0      0.0129       4.594
  YS02001884           JUNCTION      0.00    82.26     0  02:20           0      0.0488       5.553
  YS02001887           JUNCTION    556.84   556.84     0  02:25       0.724       0.757       0.587
  YS02001890           JUNCTION      0.00   557.43     0  02:25           0       0.716       0.714
  YS02001895           JUNCTION      0.00   511.34     0  02:26           0       0.705       0.191
  YS02001898           JUNCTION      0.00   511.87     0  02:26           0       0.703       0.029
  YS02001901           JUNCTION      0.00   511.77     0  02:26           0       0.706       0.460
  YS02001904           JUNCTION      0.00   512.21     0  02:26           0       0.709       0.384
  YS02001907           JUNCTION      0.00  1520.89     0  02:24           0         2.3       0.788
  YS02001910           JUNCTION      0.00  1025.43     0  02:24           0         1.6       0.441
  YS02001915           JUNCTION    621.25  1024.87     0  02:24       0.995        1.64       0.095
  YS02001918           JUNCTION      0.00   441.83     0  02:24           0       0.674       0.008
  YS02001920           JUNCTION      2.87   440.58     0  02:24      0.0827       0.657       0.110
  YS02001923           JUNCTION      0.04   423.73     0  02:23     0.00109       0.559      -0.117
  YS02001926           JUNCTION      0.05   570.08     0  02:23      0.0015       0.539      -0.043
  YS02001929           JUNCTION    299.15   373.98     0  02:23       0.524       0.526      -0.049
  YS02006553           JUNCTION      0.00   793.26     0  02:34           0        1.93       0.619
  YS02006556           JUNCTION      0.00   793.53     0  02:34           0        1.94       0.415
  YS02006558           JUNCTION    731.76  1164.66     0  02:22        1.05        2.96       0.122
  YS02006561           JUNCTION      0.00  1168.20     0  02:22           0        2.94      -0.003
  YS02163301           JUNCTION      0.00   928.32     0  02:22           0         2.8       0.059
  YS02163601           JUNCTION      0.11  1392.83     0  02:22     0.00317        3.83       0.132
  YS02164001           JUNCTION      0.00  1391.43     0  02:22           0        3.83       0.067
  YSB1154              JUNCTION    293.29   293.29     0  02:25       0.433       0.434       0.334
  YSB1171              JUNCTION      0.00   555.77     0  02:25           0        0.77       0.832
  YSB1174              JUNCTION    261.60   261.60     0  02:25       0.328       0.329       0.379
  YSB6556              JUNCTION      0.00   293.39     0  02:25           0       0.435       0.258
  CC-1                 OUTFALL       0.00   683.00     0  00:00           0        3.38       0.000
  CC-2                 OUTFALL       0.00   683.00     0  00:00           0        2.82       0.000
  JK-1                 OUTFALL       0.00  1000.00     0  00:00           0        1.37       0.000
  JK-2                 OUTFALL       0.00  1000.00     0  00:00           0       0.864       0.000
  WSC                  OUTFALL       0.00  1475.13     0  02:29           0        12.6       0.000
  CC-storage           STORAGE       0.00  3392.56     0  02:26           0        9.97      -0.303
  JK-storage           STORAGE       0.00  1221.81     0  02:33           0        3.12      -0.550
  XR-storage           STORAGE     200.00   200.00     0  00:00        5.76        6.36       0.001
  
  
  **********************
  Node Surcharge Summary
  **********************
  
  Surcharging occurs when water rises above the top of the highest conduit.
  ---------------------------------------------------------------------
                                               Max. Height   Min. Depth
                                   Hours       Above Crown    Below Rim
  Node                 Type      Surcharged         Meters       Meters
  ---------------------------------------------------------------------
  HS02004478           JUNCTION        0.27          0.695        0.245
  HS02004479           JUNCTION        0.38          0.923        0.127
  HS02004480           JUNCTION        0.41          0.996        0.104
  HS02004770           JUNCTION        0.33          0.720        0.000
  HS02004777           JUNCTION        0.33          0.780        0.000
  HS02004785           JUNCTION        0.29          0.790        0.000
  HS02004788           JUNCTION        0.28          0.720        0.000
  HS02004792           JUNCTION        0.38          0.900        0.000
  HS02004799           JUNCTION        0.48          1.060        0.000
  HS02004802           JUNCTION        0.42          1.114        0.096
  HS02004807           JUNCTION        0.40          1.220        0.000
  HS02004817           JUNCTION        0.85          1.718        0.022
  HS02004824           JUNCTION        0.29          1.290        0.020
  HS02004830           JUNCTION        0.26          1.294        0.036
  HS02004837           JUNCTION        0.23          1.239        0.101
  HS02004842           JUNCTION        0.35          1.520        0.000
  HS02004848           JUNCTION        0.21          1.302        0.068
  HS02004852           JUNCTION        0.23          1.394        0.026
  HS02004856           JUNCTION        0.21          1.300        0.000
  HS02004862           JUNCTION        0.24          1.300        0.000
  HS02004870           JUNCTION        0.25          1.302        0.098
  HS02004876           JUNCTION        0.32          1.395        0.165
  HS02004881           JUNCTION        0.30          1.130        0.320
  HS02004901           JUNCTION        0.34          0.720        0.000
  WS02004401           JUNCTION        1.21          0.790        0.870
  WS02004402           JUNCTION        1.24          0.740        1.000
  WS02004403           JUNCTION        1.25          0.662        1.368
  WS02004404           JUNCTION        1.40          0.678        2.102
  WS02004405           JUNCTION        1.34          0.632        2.168
  WS02004406           JUNCTION        1.30          0.522        1.928
  WS02004409           JUNCTION        0.70          0.355        2.005
  WS02004410           JUNCTION        0.63          0.270        2.270
  WS02004411           JUNCTION        0.57          0.183        2.347
  WS02004412           JUNCTION        0.50          0.090        2.220
  WS02004413           JUNCTION        0.97          0.135        2.065
  WS02006109           JUNCTION        1.64          1.820        0.000
  WS02006110           JUNCTION        1.46          1.455        0.395
  WS02006111           JUNCTION        0.88          0.854        1.016
  WS02006112           JUNCTION        1.52          1.286        0.394
  WS02006113           JUNCTION        0.92          0.974        0.956
  WS02006115           JUNCTION        1.07          0.862        1.388
  WS02006116           JUNCTION        1.10          0.814        1.476
  WS02006228           JUNCTION        1.63          2.200        0.000
  WS02006229           JUNCTION        0.61          1.069        0.001
  WS02006230           JUNCTION        1.38          1.570        0.000
  WS02006231           JUNCTION        1.39          1.479        0.051
  WS02006232           JUNCTION        1.48          1.480        0.000
  WS02006234           JUNCTION        1.38          1.240        0.000
  WS02006235           JUNCTION        1.39          1.256        0.034
  WS02006238           JUNCTION        1.41          1.259        0.171
  WS02006239           JUNCTION        1.39          1.126        0.164
  WS02006240           JUNCTION        1.39          1.091        0.299
  WS02006242           JUNCTION        1.41          0.820        0.000
  WS02006243           JUNCTION        1.39          0.770        0.000
  WS02006245           JUNCTION        1.39          0.677        0.173
  WS02006247           JUNCTION        1.39          0.598        0.162
  WS02006248           JUNCTION        1.38          0.380        0.000
  WS02006249           JUNCTION        1.39          0.390        0.000
  WS02006251           JUNCTION        1.29          1.169        0.011
  WS02006252           JUNCTION        1.65          1.100        0.000
  WS02006253           JUNCTION        1.30          2.000        0.480
  WS02006256           JUNCTION        6.97          2.050        0.000
  WS02006280           JUNCTION        0.49          0.726        0.054
  WS02006284           JUNCTION        0.43          0.705        0.095
  WS02006287           JUNCTION        0.36          0.773        0.117
  YS02001580           JUNCTION        0.33          0.450        0.000
  YS02001583           JUNCTION        0.34          0.397        0.103
  YS02001586           JUNCTION        0.44          0.510        0.000
  YS02001590           JUNCTION        0.50          0.727        0.023
  YS02001593           JUNCTION        0.50          0.667        0.173
  YS02001596           JUNCTION        0.59          0.925        0.145
  YS02001600           JUNCTION        0.71          1.190        0.000
  YS02001601           JUNCTION        1.02          1.440        0.000
  YS02001602           JUNCTION        0.93          1.270        0.000
  YS02001605           JUNCTION        0.88          1.180        0.000
  YS02001607           JUNCTION        0.45          0.645        0.035
  YS02001610           JUNCTION        0.48          0.680        0.000
  YS02001613           JUNCTION        0.45          0.653        0.047
  YS02001616           JUNCTION        0.41          0.590        0.020
  YS02001619           JUNCTION        0.40          0.579        0.031
  YS02001622           JUNCTION        0.40          0.558        0.062
  YS02001625           JUNCTION        0.55          0.780        0.000
  YS02001629           JUNCTION        0.36          0.470        0.000
  YS02001633           JUNCTION        0.56          0.985        0.075
  YS02001641           JUNCTION        0.48          0.950        0.150
  YS02001644           JUNCTION        0.45          0.920        0.000
  YS02001647           JUNCTION        0.28          0.738        0.162
  YS02001649           JUNCTION        0.34          0.883        0.167
  YS02001652           JUNCTION        0.22          0.726        0.404
  YS02001655           JUNCTION        0.12          0.734        0.466
  YS02001658           JUNCTION        0.03          0.666        0.634
  YS02001748           JUNCTION        0.01          0.373        0.817
  YS02001751           JUNCTION        0.06          0.470        0.730
  YS02001754           JUNCTION        0.13          0.543        0.607
  YS02001757           JUNCTION        0.35          0.855        0.355
  YS02001759           JUNCTION        0.29          0.799        0.411
  YS02001762           JUNCTION        0.27          0.788        0.362
  YS02001765           JUNCTION        0.24          0.775        0.325
  YS02001767           JUNCTION        0.23          0.779        0.251
  YS02001770           JUNCTION        0.22          0.810        0.110
  YS02001774           JUNCTION        0.26          0.949        0.101
  YS02001779           JUNCTION        0.14          0.680        0.000
  YS02001783           JUNCTION        0.34          0.487        1.113
  YS02001784           JUNCTION        0.32          0.360        1.130
  YS02001786           JUNCTION        0.23          0.103        1.327
  YS02001882           JUNCTION        0.29          0.646        0.184
  YS02001884           JUNCTION        0.30          0.680        0.190
  YS02001887           JUNCTION        0.33          0.763        0.187
  YS02001890           JUNCTION        0.34          0.760        0.000
  YS02001895           JUNCTION        0.28          0.612        0.138
  YS02001898           JUNCTION        0.28          0.605        0.135
  YS02001901           JUNCTION        0.32          0.733        0.137
  YS02001904           JUNCTION        0.31          0.668        0.182
  YS02001907           JUNCTION        0.52          0.950        0.000
  YS02001910           JUNCTION        0.37          0.964        0.136
  YS02001915           JUNCTION        0.29          0.910        0.090
  YS02001918           JUNCTION        0.22          0.810        0.000
  YS02001920           JUNCTION        0.23          1.140        0.000
  YS02001923           JUNCTION        0.01          0.820        0.000
  YS02001926           JUNCTION        0.01          0.900        0.000
  YS02001929           JUNCTION        0.01          0.780        0.000
  YS02006553           JUNCTION        0.54          0.970        0.220
  YS02006556           JUNCTION        0.44          0.897        0.453
  YS02006558           JUNCTION        0.43          0.881        0.519
  YS02006561           JUNCTION        0.19          0.178        0.972
  YS02163301           JUNCTION        0.54          0.912        0.118
  YS02163601           JUNCTION        0.58          1.032        0.048
  YS02164001           JUNCTION        0.49          0.953        0.147
  YSB1154              JUNCTION        0.57          1.186        0.214
  YSB1171              JUNCTION        0.57          1.100        0.000
  YSB1174              JUNCTION        0.52          1.099        0.151
  YSB6556              JUNCTION        0.47          1.038        0.062
  
  
  *********************
  Node Flooding Summary
  *********************
  
  Flooding refers to all water that overflows a node, whether it ponds or not.
  --------------------------------------------------------------------------
                                                             Total   Maximum
                                 Maximum   Time of Max       Flood    Ponded
                        Hours       Rate    Occurrence      Volume     Depth
  Node                 Flooded       LPS   days hr:min    10^6 ltr    Meters
  --------------------------------------------------------------------------
  HS02004770              0.19    539.69      0  02:25       0.214     0.000
  HS02004777              0.01     61.94      0  02:20       0.000     0.000
  HS02004785              0.01    117.05      0  02:20       0.000     0.000
  HS02004788              0.01    209.10      0  02:20       0.001     0.000
  HS02004792              0.19    881.72      0  02:25       0.339     0.000
  HS02004799              0.07     82.99      0  02:23       0.011     0.000
  HS02004807              0.01     19.55      0  02:23       0.000     0.000
  HS02004842              0.01     72.81      0  02:23       0.001     0.000
  HS02004856              0.01    566.01      0  02:23       0.003     0.000
  HS02004862              0.01     33.13      0  02:23       0.000     0.000
  HS02004901              0.24    487.06      0  02:26       0.299     0.000
  WS02006109              0.23    208.81      0  02:25       0.101     0.000
  WS02006228              0.01      4.79      0  02:23       0.000     0.000
  WS02006230              0.44    549.63      0  02:25       0.533     0.000
  WS02006232              0.10      0.67      0  02:35       0.000     0.000
  WS02006234              0.48    128.69      0  02:29       0.172     0.000
  WS02006242              0.57    137.19      0  02:35       0.239     0.000
  WS02006243              0.01     57.14      0  02:02       0.000     0.000
  WS02006248              0.82    339.10      0  02:26       0.785     0.000
  WS02006249              1.31   1276.50      0  02:23       2.857     0.000
  WS02006252              0.26    436.27      0  02:25       0.184     0.000
  WS02006256              0.80    294.75      0  02:16       0.459     0.000
  YS02001580              0.01     84.99      0  02:19       0.000     0.000
  YS02001586              0.23    141.01      0  02:26       0.065     0.000
  YS02001600              0.01      0.14      0  02:31       0.000     0.000
  YS02001601              0.38    771.87      0  02:26       0.599     0.000
  YS02001602              0.27     61.93      0  02:35       0.054     0.000
  YS02001605              0.01      0.08      0  02:31       0.000     0.000
  YS02001610              0.23    309.51      0  02:27       0.163     0.000
  YS02001625              0.20    865.02      0  02:26       0.290     0.000
  YS02001629              0.04     66.09      0  02:25       0.006     0.000
  YS02001644              0.03     92.00      0  02:26       0.005     0.000
  YS02001779              0.01    231.24      0  02:23       0.002     0.000
  YS02001890              0.06     52.76      0  02:25       0.006     0.000
  YS02001907              0.17   1067.72      0  02:24       0.363     0.000
  YS02001918              0.01    191.89      0  02:23       0.002     0.000
  YS02001920              0.01     41.06      0  02:23       0.000     0.000
  YS02001923              0.01     92.46      0  02:23       0.000     0.000
  YS02001926              0.01    191.99      0  02:23       0.001     0.000
  YS02001929              0.01     65.47      0  02:23       0.000     0.000
  YSB1171                 0.12    420.64      0  02:25       0.112     0.000
  
  
  **********************
  Storage Volume Summary
  **********************
  
  --------------------------------------------------------------------------------------------------
                         Average     Avg  Evap Exfil       Maximum     Max    Time of Max    Maximum
                          Volume    Pcnt  Pcnt  Pcnt        Volume    Pcnt     Occurrence    Outflow
  Storage Unit           1000 m3    Full  Loss  Loss       1000 m3    Full    days hr:min        LPS
  --------------------------------------------------------------------------------------------------
  CC-storage               1.894      30     0     0         3.902      61       0  02:53    1783.53
  JK-storage               0.071      24     0     0         0.213      73       0  02:24    2300.00
  XR-storage               0.947      66     0     0         1.111      77       0  08:00     380.00
  
  
  ***********************
  Outfall Loading Summary
  ***********************
  
  -----------------------------------------------------------
                         Flow       Avg       Max       Total
                         Freq      Flow      Flow      Volume
  Outfall Node           Pcnt       LPS       LPS    10^6 ltr
  -----------------------------------------------------------
  CC-1                  31.72    683.00    683.00       3.380
  CC-2                  24.57    683.00    683.00       2.818
  JK-1                   7.08   1000.00   1000.00       1.368
  JK-2                   4.73   1000.00   1000.00       0.864
  WSC                   99.95    576.67   1475.13      12.644
  -----------------------------------------------------------
  System                33.61   3942.67   4150.12      21.074
  
  
  ********************
  Link Flow Summary
  ********************
  
  -----------------------------------------------------------------------------
                                 Maximum  Time of Max   Maximum    Max/    Max/
                                  |Flow|   Occurrence   |Veloc|    Full    Full
  Link                 Type          LPS  days hr:min     m/sec    Flow   Depth
  -----------------------------------------------------------------------------
  1                    CONDUIT   1475.13     0  02:29      3.68    0.51    0.51
  HS02004478WS02006287 CONDUIT   2255.41     0  02:25      2.61    0.63    1.00
  HS02004479HS02004480 CONDUIT    464.71     0  02:23      0.66    0.45    1.00
  HS02004480HS02004478 CONDUIT   2111.79     0  02:21      3.02    8.89    1.00
  HS02004770HS02004777 CONDUIT    749.27     0  02:19      1.07    1.37    1.00
  HS02004777HS02004785 CONDUIT    766.91     0  02:19      1.15    0.94    1.00
  HS02004785HS02004788 CONDUIT    629.88     0  02:20      1.35    4.75    1.00
  HS02004788HS02004792 CONDUIT    809.41     0  02:34      1.45    0.54    1.00
  HS02004792HS02004799 CONDUIT   1567.66     0  02:21      2.24    0.96    1.00
  HS02004799HS02004480 CONDUIT   1733.66     0  02:21      2.48    2.19    1.00
  HS02004802HS02004478 CONDUIT    789.98     0  02:25      1.13    0.70    1.00
  HS02004807HS02004802 CONDUIT    790.01     0  02:25      1.13    1.51    1.00
  HS02004817HS02004807 CONDUIT    474.77     0  02:26      0.68    0.28    1.00
  HS02004817HS02004824 CONDUIT    474.12     0  02:26      0.68    0.21    1.00
  HS02004824HS02004830 CONDUIT    652.41     0  02:21      0.95    0.85    1.00
  HS02004830HS02004837 CONDUIT    657.79     0  02:20      1.03    0.66    1.00
  HS02004837HS02004842 CONDUIT    865.80     0  02:21      1.24    0.52    1.00
  HS02004842HS02004848 CONDUIT    863.89     0  02:21      1.39    0.50    1.00
  HS02004848HS02004852 CONDUIT   1069.60     0  02:22      1.63    1.21    1.00
  HS02004852HS02004856 CONDUIT   1074.93     0  02:22      1.54    1.23    1.00
  HS02004856HS02004862 CONDUIT   1087.06     0  02:22      1.72    1.08    1.00
  HS02004862HS02004870 CONDUIT   1207.70     0  02:22      1.93    1.30    1.00
  HS02004870HS02004876 CONDUIT   1191.50     0  02:23      1.79    0.79    1.00
  HS02004876HS02004881 CONDUIT   1337.31     0  02:23      2.36   14.22    1.00
  HS02004881HS02006253 CONDUIT   1423.07     0  02:23      2.48    0.28    1.00
  HS02004901HS02004770 CONDUIT    264.61     0  02:31      0.38    1.00    1.00
  WS02001211WS02001212 CONDUIT    218.10     0  02:54      0.54    0.17    0.68
  WS02001212WS02001213 CONDUIT    223.00     0  02:54      1.04    0.34    0.55
  WS02001213WS02003059 CONDUIT    231.12     0  02:53      0.47    0.38    0.88
  WS02003059WS02003060 CONDUIT    239.71     0  02:53      0.66    0.16    0.80
  WS02003060WS02003069 CONDUIT   1472.68     0  02:28      2.07    0.58    0.60
  WS02003066WSF200     CONDUIT   1271.93     0  02:26      3.24    0.21    0.38
  WS02003067WS02003066 CONDUIT   1271.80     0  02:26      1.97    0.41    0.56
  WS02003069WS02003072 CONDUIT   1472.83     0  02:28      1.88    0.71    0.65
  WS02003072WS02003073 CONDUIT   1472.95     0  02:28      2.04    3.18    0.61
  WS02004138WS02004139 CONDUIT    190.27     0  00:29      2.17    0.04    0.41
  WS02004139WS02001211 CONDUIT    201.84     0  02:55      0.54    0.26    0.60
  WS02004401WS02004402 CONDUIT   1272.27     0  02:25      1.62    1.53    1.00
  WS02004402WS02004403 CONDUIT   1272.76     0  02:25      1.62    1.83    1.00
  WS02004403WS02004404 CONDUIT   1272.84     0  02:25      1.62    0.92    1.00
  WS02004404WS02004405 CONDUIT   1273.27     0  02:25      1.62   12.47    1.00
  WS02004405WS02004406 CONDUIT   1273.69     0  02:25      1.62    2.51    1.00
  WS02004406WS02004407 CONDUIT   1273.23     0  02:25      1.72    0.57    0.94
  WS02004407WS02004409 CONDUIT   1271.22     0  02:26      1.76    0.45    0.94
  WS02004409WS02004410 CONDUIT   1271.58     0  02:25      1.62    1.64    1.00
  WS02004410WS02004411 CONDUIT   1271.32     0  02:26      1.62    1.74    1.00
  WS02004411WS02004412 CONDUIT   1271.31     0  02:26      1.62    1.81    1.00
  WS02004412WS02004413 CONDUIT   1271.17     0  02:25      1.62    0.85    1.00
  WS02004413WS02003067 CONDUIT   1271.44     0  02:26      1.98    0.54    0.76
  WS02006109WS02006110 CONDUIT   1122.57     0  02:34      2.23    2.16    1.00
  WS02006110WS02006113 CONDUIT   1122.61     0  02:34      2.23    1.02    1.00
  WS02006111WS02006112 CONDUIT   1123.00     0  02:34      2.23    0.53    1.00
  WS02006112WS02006115 CONDUIT   1272.36     0  02:24      1.62    0.75    1.00
  WS02006113WS02006111 CONDUIT   1122.68     0  02:34      2.63    1.35    1.00
  WS02006115WS02006116 CONDUIT   1272.41     0  02:25      1.62    1.63    1.00
  WS02006116WS02004401 CONDUIT   1272.64     0  02:25      1.62    1.75    1.00
  WS02006228WS02006109 CONDUIT   1263.91     0  02:25      2.51    5.52    1.00
  WS02006229WS02006228 CONDUIT   1264.15     0  02:25      2.51    4.19    1.00
  WS02006230WS02006229 CONDUIT    992.24     0  02:25      2.58   22.08    1.00
  WS02006231WS02006230 CONDUIT    493.41     0  03:25      1.38    7.48    1.00
  WS02006232WS02006231 CONDUIT    493.49     0  03:25      1.28    1.03    1.00
  WS02006234WS02006232 CONDUIT    493.72     0  03:25      1.41    1.00    1.00
  WS02006235WS02006234 CONDUIT    493.78     0  03:25      1.28    5.21    1.00
  WS02006238WS02006235 CONDUIT    415.67     0  02:35      1.45    0.93    1.00
  WS02006239WS02006238 CONDUIT    415.12     0  02:36      1.12    1.33    1.00
  WS02006240WS02006239 CONDUIT    414.91     0  02:35      1.26    1.31    1.00
  WS02006242WS02006240 CONDUIT    414.79     0  02:19      1.14    1.65    1.00
  WS02006243WS02006242 CONDUIT    401.93     0  03:25      1.34    0.86    1.00
  WS02006245WS02006243 CONDUIT    408.68     0  02:02      1.39    1.21    1.00
  WS02006247WS02006245 CONDUIT    436.23     0  02:02      1.37    3.46    1.00
  WS02006248WS02006247 CONDUIT    459.00     0  02:02      1.38    1.00    1.00
  WS02006249WS02006248 CONDUIT    509.54     0  02:02      1.44    2.79    1.00
  WS02006251WS02006249 CONDUIT   1337.26     0  02:23      3.47    3.86    1.00
  WS02006252WS02006251 CONDUIT    416.42     0  02:10     26.79    1.53    1.00
  WS02006253WS02006251 CONDUIT   1447.60     0  02:23      3.76    4.34    1.00
  WS02006256WS02006235 CONDUIT    288.93     0  00:00      4.23    3.06    1.00
  WS02006280WS02006229 CONDUIT   2257.54     0  02:25      4.05    0.48    1.00
  WS02006284WS02006280 CONDUIT   2256.07     0  02:25      3.00    0.94    1.00
  WS02006287WS02006284 CONDUIT   2255.51     0  02:25      2.87    1.05    1.00
  WSF200WS02003060     CONDUIT   1271.49     0  02:26      2.28    0.28    0.49
  YS02001580YS02001583 CONDUIT    114.63     0  02:19      0.66    0.44    1.00
  YS02001583YS02001586 CONDUIT    158.40     0  02:19      0.66    0.24    1.00
  YS02001586YS02001590 CONDUIT    318.19     0  02:31      1.25    0.56    1.00
  YS02001590YS02001593 CONDUIT    318.17     0  02:31      1.13    2.00    1.00
  YS02001593YS02001596 CONDUIT    318.11     0  02:30      1.73    0.50    1.00
  YS02001596YS02001600 CONDUIT    318.03     0  02:34      1.22    0.62    1.00
  YS02001600YS02001601 CONDUIT    318.12     0  02:31      1.13    0.55    1.00
  YS02001601YS02001602 CONDUIT    514.44     0  02:19      1.82    1.86    1.00
  YS02001602YS02001605 CONDUIT    514.26     0  02:19      1.82   10.88    1.00
  YS02001605YS02001607 CONDUIT    513.93     0  02:19      1.82    2.82    1.00
  YS02001607YS02001610 CONDUIT    516.95     0  02:18      0.66    0.49    1.00
  YS02001610YS02001613 CONDUIT    519.22     0  02:18      0.66    0.60    1.00
  YS02001613YS02001616 CONDUIT    514.34     0  02:19      0.66    0.44    1.00
  YS02001616YS02001619 CONDUIT    502.57     0  02:19      0.68    0.87    1.00
  YS02001619YS02001622 CONDUIT    930.17     0  02:22      1.18    1.37    1.00
  YS02001622YS02001625 CONDUIT    929.80     0  02:22      1.18    0.50    1.00
  YS02001625YS02001629 CONDUIT    929.77     0  02:22      1.18    0.44    1.00
  YS02001629YS02163301 CONDUIT    928.32     0  02:22      1.18    1.14    1.00
  YS02001633YS02163601 CONDUIT   1392.72     0  02:22      1.77    1.46    1.00
  YS02001641YS02001644 CONDUIT   1388.99     0  02:22      1.77    4.49    1.00
  YS02001644YS02001647 CONDUIT   1811.55     0  02:22      2.31    1.06    1.00
  YS02001647YS02001649 CONDUIT   1828.43     0  02:22      2.36    0.97    1.00
  YS02001649YS02001757 CONDUIT   2058.53     0  02:22      2.62    1.25    1.00
  YS02001652YS02001649 CONDUIT    646.22     0  02:26      0.82    0.32    1.00
  YS02001655YS02001652 CONDUIT    646.87     0  02:26      1.29    0.31    1.00
  YS02001658YS02001655 CONDUIT    646.14     0  02:26      1.91    0.27    1.00
  YS02001661YS02001658 CONDUIT    728.38     0  02:24      2.34    0.29    0.94
  YS02001664YS02001661 CONDUIT    673.30     0  02:26      2.34    0.21    0.63
  YS02001745YS02001748 CONDUIT    568.85     0  02:25      2.21    0.22    0.77
  YS02001748YS02001751 CONDUIT    434.02     0  02:26      1.74    0.22    1.00
  YS02001751YS02001754 CONDUIT    435.42     0  02:26      1.45    0.21    1.00
  YS02001754YS02001757 CONDUIT    436.98     0  02:25      0.56    0.18    1.00
  YS02001757CaochengTiaoxuchi CONDUIT   3392.56     0  02:26      4.34    1.47    1.00
  YS02001759YS02001757 CONDUIT   1237.45     0  02:25      1.58    0.88    1.00
  YS02001762YS02001759 CONDUIT    727.86     0  02:25      0.93    0.84    1.00
  YS02001765YS02001762 CONDUIT    727.37     0  02:25      0.93    0.68    1.00
  YS02001767YS02001765 CONDUIT    726.02     0  02:25      0.92    0.91    1.00
  YS02001770YS02001767 CONDUIT    723.95     0  02:25      0.92    2.87    1.00
  YS02001774YS02001770 CONDUIT    307.56     0  02:23      0.39    0.20    1.00
  YS02001779YS02001774 CONDUIT    310.88     0  02:23      0.40    0.16    1.00
  YS02001783YS02001784 CONDUIT   1154.51     0  02:25      2.30    1.59    1.00
  YS02001784YS02001785 CONDUIT   1155.09     0  02:25      2.30    2.69    1.00
  YS02001786YS02001788 CONDUIT   1155.37     0  02:25      2.46    2.23    0.89
  YS02001788YS02001790 CONDUIT   1165.46     0  02:24      2.70    0.86    0.84
  YS02001790YS02001791 CONDUIT   1289.57     0  02:24      3.44    1.40    0.70
  YS02001791YS02001793 CONDUIT   1254.44     0  02:25      6.72    0.54    0.45
  YS02001793JiankangQianchi CONDUIT   1221.81     0  02:33      2.46    0.10    0.65
  YS02001882YS02001884 CONDUIT     40.36     0  02:21      0.07    0.05    1.00
  YS02001884YS02001887 CONDUIT     82.26     0  02:20      0.10    0.11    1.00
  YS02001887YS02001890 CONDUIT    557.43     0  02:25      0.71    0.95    1.00
  YS02001890YS02001895 CONDUIT    511.34     0  02:26      0.65    0.24    1.00
  YS02001895YS02001898 CONDUIT    511.87     0  02:26      0.65    0.89    1.00
  YS02001898YS02001901 CONDUIT    511.77     0  02:26      0.65    0.33    1.00
  YS02001901YS02001904 CONDUIT    512.21     0  02:26      0.65    0.79    1.00
  YS02001904YS02001907 CONDUIT    512.33     0  02:26      0.65    0.18    1.00
  YS02001907YS02006553 CONDUIT    793.26     0  02:34      0.88    0.93    1.00
  YS02001910YS02001907 CONDUIT   1025.52     0  02:24      1.31    0.58    1.00
  YS02001915YS02001910 CONDUIT   1025.43     0  02:24      1.31    0.51    1.00
  YS02001918YS02001915 CONDUIT    443.35     0  02:24      0.56    0.24    1.00
  YS02001920YS02001918 CONDUIT    441.83     0  02:24      0.66    0.43    1.00
  YS02001923YS02001920 CONDUIT    437.71     0  02:24      0.70    0.20    1.00
  YS02001926YS02001923 CONDUIT    422.38     0  02:23      0.95    0.60    1.00
  YS02001929YS02001926 CONDUIT    403.49     0  02:24      1.12    0.19    1.00
  YS02006553YS02006556 CONDUIT    793.53     0  02:34      1.01    0.68    1.00
  YS02006556YS02006558 CONDUIT    795.98     0  02:34      1.01    0.63    1.00
  YS02006558YS02006561 CONDUIT   1168.20     0  02:22      4.13    2.58    1.00
  YS02006561YS02001783 CONDUIT   1154.10     0  02:25      2.30    0.60    1.00
  YS02163301YS02001633 CONDUIT    928.32     0  02:22      1.18    0.87    1.00
  YS02163601YS02164001 CONDUIT   1391.43     0  02:22      1.77    1.23    1.00
  YS02164001YS02001641 CONDUIT   1389.06     0  02:22      1.77    1.90    1.00
  YSB1154YSB6556       CONDUIT    293.39     0  02:25      0.76    0.53    1.00
  YSB1171HS02004479    CONDUIT    462.02     0  02:23      0.92    0.31    1.00
  YSB1174YSB1171       CONDUIT    261.89     0  02:25      0.68    0.40    1.00
  YSB6556YSB1171       CONDUIT    293.87     0  02:25      0.76    0.30    1.00
  CC-R1                PUMP       683.00     0  00:00              1.00
  CC-R2                PUMP       683.00     0  00:00              1.00
  CC-S1                PUMP       200.00     0  00:00              1.00
  CC-S2                PUMP       200.00     0  00:00              1.00
  JK-R1                PUMP      1000.00     0  00:00              1.00
  JK-R2                PUMP      1000.00     0  00:00              1.00
  JK-S                 PUMP       300.00     0  00:00              1.00
  XR-1                 PUMP        95.00     0  00:00              1.00
  XR-2                 PUMP        95.00     0  00:00              1.00
  XR-3                 PUMP        95.00     0  00:00              1.00
  XR-4                 PUMP        95.00     0  00:00              1.00
  
  
  ***************************
  Flow Classification Summary
  ***************************
  
  -------------------------------------------------------------------------------------
                      Adjusted    ---------- Fraction of Time in Flow Class ---------- 
                       /Actual         Up    Down  Sub   Sup   Up    Down  Norm  Inlet 
  Conduit               Length    Dry  Dry   Dry   Crit  Crit  Crit  Crit  Ltd   Ctrl  
  -------------------------------------------------------------------------------------
  1                       1.00   0.00  0.00  0.00  0.00  1.00  0.00  0.00  0.29  0.00
  HS02004478WS02006287    1.00   0.11  0.00  0.00  0.61  0.28  0.00  0.00  0.62  0.00
  HS02004479HS02004480    1.00   0.04  0.00  0.00  0.96  0.00  0.00  0.00  0.12  0.00
  HS02004480HS02004478    1.00   0.10  0.00  0.00  0.48  0.00  0.00  0.43  0.00  0.00
  HS02004770HS02004777    1.00   0.00  0.09  0.00  0.91  0.00  0.00  0.00  0.04  0.00
  HS02004777HS02004785    1.00   0.00  0.00  0.00  1.00  0.00  0.00  0.00  0.14  0.00
  HS02004785HS02004788    1.00   0.00  0.00  0.00  1.00  0.00  0.00  0.00  0.00  0.00
  HS02004788HS02004792    1.00   0.00  0.00  0.00  0.99  0.01  0.00  0.00  0.93  0.00
  HS02004792HS02004799    1.00   0.00  0.00  0.00  0.99  0.01  0.00  0.00  0.90  0.00
  HS02004799HS02004480    1.00   0.00  0.04  0.00  0.89  0.00  0.07  0.00  0.00  0.00
  HS02004802HS02004478    1.00   0.09  0.00  0.00  0.90  0.00  0.00  0.00  0.03  0.00
  HS02004807HS02004802    1.00   0.09  0.00  0.00  0.90  0.00  0.00  0.01  0.00  0.00
  HS02004817HS02004807    1.00   0.00  0.09  0.00  0.91  0.00  0.00  0.00  0.01  0.00
  HS02004817HS02004824    1.00   0.00  0.00  0.00  1.00  0.00  0.00  0.00  0.87  0.00
  HS02004824HS02004830    1.00   0.00  0.00  0.00  1.00  0.00  0.00  0.00  0.01  0.00
  HS02004830HS02004837    1.00   0.00  0.00  0.00  1.00  0.00  0.00  0.00  0.92  0.00
  HS02004837HS02004842    1.00   0.00  0.00  0.00  1.00  0.00  0.00  0.00  0.11  0.00
  HS02004842HS02004848    1.00   0.00  0.09  0.00  0.91  0.00  0.00  0.00  0.58  0.00
  HS02004848HS02004852    1.00   0.09  0.00  0.00  0.91  0.00  0.00  0.00  0.69  0.00
  HS02004852HS02004856    1.00   0.09  0.01  0.00  0.90  0.00  0.00  0.00  0.71  0.00
  HS02004856HS02004862    1.00   0.00  0.13  0.00  0.87  0.00  0.00  0.00  0.75  0.00
  HS02004862HS02004870    1.00   0.00  0.00  0.00  1.00  0.00  0.00  0.00  0.05  0.00
  HS02004870HS02004876    1.00   0.00  0.00  0.00  0.98  0.01  0.00  0.00  0.89  0.00
  HS02004876HS02004881    1.00   0.02  0.00  0.00  0.78  0.20  0.00  0.00  0.00  0.00
  HS02004881HS02006253    1.00   0.03  0.03  0.00  0.40  0.02  0.00  0.53  0.17  0.00
  HS02004901HS02004770    1.00   0.09  0.00  0.00  0.91  0.00  0.00  0.00  0.01  0.00
  WS02001211WS02001212    1.00   0.00  0.03  0.00  0.97  0.00  0.00  0.00  0.00  0.00
  WS02001212WS02001213    1.00   0.03  0.00  0.00  0.45  0.00  0.52  0.00  0.00  0.00
  WS02001213WS02003059    1.00   0.00  0.00  0.00  0.99  0.00  0.00  0.00  0.00  0.00
  WS02003059WS02003060    1.00   0.00  0.00  0.00  1.00  0.00  0.00  0.00  0.03  0.00
  WS02003060WS02003069    1.00   0.00  0.00  0.00  0.99  0.01  0.00  0.00  0.52  0.00
  WS02003066WSF200        1.00   0.06  0.00  0.00  0.00  0.94  0.00  0.00  0.75  0.00
  WS02003067WS02003066    1.00   0.05  0.00  0.00  0.94  0.00  0.00  0.00  0.00  0.00
  WS02003069WS02003072    1.00   0.00  0.00  0.00  1.00  0.00  0.00  0.00  0.70  0.00
  WS02003072WS02003073    1.00   0.00  0.00  0.00  0.00  0.00  0.00  1.00  0.00  0.00
  WS02004138WS02004139    1.00   0.00  0.01  0.00  0.97  0.01  0.00  0.01  0.98  0.00
  WS02004139WS02001211    1.00   0.00  0.00  0.00  0.99  0.00  0.00  0.00  0.00  0.00
  WS02004401WS02004402    1.00   0.03  0.00  0.00  0.97  0.00  0.00  0.00  0.00  0.00
  WS02004402WS02004403    1.00   0.03  0.00  0.00  0.97  0.00  0.00  0.00  0.00  0.00
  WS02004403WS02004404    1.00   0.00  0.03  0.00  0.97  0.00  0.00  0.00  0.00  0.00
  WS02004404WS02004405    1.00   0.00  0.00  0.00  1.00  0.00  0.00  0.00  0.01  0.00
  WS02004405WS02004406    1.00   0.00  0.00  0.00  1.00  0.00  0.00  0.00  0.00  0.00
  WS02004406WS02004407    1.00   0.00  0.04  0.00  0.96  0.00  0.00  0.00  0.00  0.00
  WS02004407WS02004409    1.00   0.04  0.00  0.00  0.95  0.01  0.00  0.00  0.87  0.00
  WS02004409WS02004410    1.00   0.04  0.00  0.00  0.96  0.00  0.00  0.00  0.00  0.00
  WS02004410WS02004411    1.00   0.04  0.00  0.00  0.96  0.00  0.00  0.00  0.00  0.00
  WS02004411WS02004412    1.00   0.04  0.00  0.00  0.96  0.00  0.00  0.00  0.00  0.00
  WS02004412WS02004413    1.00   0.04  0.00  0.00  0.95  0.00  0.00  0.00  0.00  0.00
  WS02004413WS02003067    1.00   0.05  0.01  0.00  0.00  0.00  0.95  0.00  0.00  0.00
  WS02006109WS02006110    1.00   0.00  0.01  0.00  0.98  0.00  0.01  0.00  0.00  0.00
  WS02006110WS02006113    1.00   0.01  0.01  0.00  0.98  0.00  0.00  0.00  0.00  0.00
  WS02006111WS02006112    1.00   0.02  0.00  0.00  0.97  0.00  0.00  0.00  0.81  0.00
  WS02006112WS02006115    1.00   0.02  0.01  0.00  0.97  0.00  0.01  0.00  0.00  0.00
  WS02006113WS02006111    1.00   0.02  0.00  0.00  0.22  0.77  0.00  0.00  0.08  0.00
  WS02006115WS02006116    1.00   0.03  0.00  0.00  0.97  0.00  0.00  0.01  0.00  0.00
  WS02006116WS02004401    1.00   0.03  0.00  0.00  0.97  0.00  0.00  0.00  0.00  0.00
  WS02006228WS02006109    1.00   0.00  0.00  0.00  1.00  0.00  0.00  0.00  0.00  0.00
  WS02006229WS02006228    1.00   0.00  0.00  0.00  0.99  0.00  0.00  0.01  0.00  0.00
  WS02006230WS02006229    1.00   0.00  0.00  0.00  0.99  0.00  0.00  0.01  0.04  0.00
  WS02006231WS02006230    1.00   0.00  0.00  0.00  0.48  0.00  0.51  0.00  0.00  0.00
  WS02006232WS02006231    1.00   0.00  0.00  0.00  0.99  0.00  0.00  0.00  0.00  0.00
  WS02006234WS02006232    1.00   0.00  0.00  0.00  1.00  0.00  0.00  0.00  0.06  0.00
  WS02006235WS02006234    1.00   0.00  0.00  0.00  0.91  0.00  0.09  0.00  0.00  0.00
  WS02006238WS02006235    1.00   0.00  0.00  0.00  1.00  0.00  0.00  0.00  0.00  0.00
  WS02006239WS02006238    1.00   0.00  0.00  0.00  1.00  0.00  0.00  0.00  0.14  0.00
  WS02006240WS02006239    1.00   0.00  0.00  0.00  0.77  0.00  0.00  0.23  0.04  0.00
  WS02006242WS02006240    1.00   0.00  0.00  0.00  1.00  0.00  0.00  0.00  0.00  0.00
  WS02006243WS02006242    1.00   0.00  0.00  0.00  0.99  0.00  0.00  0.00  0.69  0.00
  WS02006245WS02006243    1.00   0.00  0.00  0.00  0.84  0.00  0.00  0.16  0.00  0.00
  WS02006247WS02006245    1.00   0.00  0.00  0.00  0.98  0.00  0.00  0.02  0.00  0.00
  WS02006248WS02006247    1.00   0.00  0.00  0.00  1.00  0.00  0.00  0.00  0.65  0.00
  WS02006249WS02006248    1.00   0.00  0.00  0.00  0.54  0.00  0.46  0.00  0.00  0.00
  WS02006251WS02006249    1.00   0.00  0.00  0.00  1.00  0.00  0.00  0.00  0.63  0.00
  WS02006252WS02006251    1.00   0.06  0.37  0.00  0.28  0.00  0.28  0.00  0.00  0.00
  WS02006253WS02006251    1.00   0.00  0.00  0.00  0.98  0.00  0.02  0.00  0.01  0.00
  WS02006256WS02006235    1.00   0.00  0.00  0.00  0.98  0.02  0.00  0.00  0.01  0.00
  WS02006280WS02006229    1.00   0.10  0.00  0.00  0.16  0.05  0.00  0.69  0.01  0.00
  WS02006284WS02006280    1.00   0.10  0.00  0.00  0.11  0.01  0.00  0.78  0.00  0.00
  WS02006287WS02006284    1.00   0.08  0.03  0.00  0.44  0.45  0.00  0.00  0.68  0.00
  WSF200WS02003060        1.00   0.00  0.06  0.00  0.56  0.38  0.00  0.00  0.69  0.00
  YS02001580YS02001583    1.00   0.27  0.47  0.00  0.26  0.00  0.00  0.00  0.65  0.00
  YS02001583YS02001586    1.00   0.27  0.36  0.00  0.37  0.00  0.00  0.00  0.65  0.00
  YS02001586YS02001590    1.00   0.09  0.00  0.00  0.61  0.04  0.00  0.26  0.38  0.00
  YS02001590YS02001593    1.00   0.09  0.01  0.00  0.12  0.00  0.78  0.00  0.00  0.00
  YS02001593YS02001596    1.00   0.10  0.00  0.00  0.14  0.01  0.00  0.75  0.02  0.00
  YS02001596YS02001600    1.00   0.10  0.00  0.00  0.24  0.03  0.00  0.64  0.05  0.00
  YS02001600YS02001601    1.00   0.09  0.01  0.00  0.90  0.00  0.00  0.00  0.64  0.00
  YS02001601YS02001602    1.00   0.09  0.01  0.00  0.90  0.00  0.00  0.00  0.00  0.00
  YS02001602YS02001605    1.00   0.10  0.00  0.00  0.90  0.00  0.00  0.00  0.00  0.00
  YS02001605YS02001607    1.00   0.10  0.00  0.00  0.90  0.00  0.00  0.00  0.00  0.00
  YS02001607YS02001610    1.00   0.10  0.01  0.00  0.90  0.00  0.00  0.00  0.02  0.00
  YS02001610YS02001613    1.00   0.09  0.00  0.00  0.91  0.00  0.00  0.00  0.01  0.00
  YS02001613YS02001616    1.00   0.09  0.00  0.00  0.91  0.00  0.00  0.00  0.01  0.00
  YS02001616YS02001619    1.00   0.09  0.00  0.00  0.91  0.00  0.00  0.00  0.00  0.00
  YS02001619YS02001622    1.00   0.09  0.00  0.00  0.91  0.00  0.00  0.00  0.29  0.00
  YS02001622YS02001625    1.00   0.09  0.00  0.00  0.91  0.00  0.00  0.00  0.07  0.00
  YS02001625YS02001629    1.00   0.09  0.04  0.00  0.17  0.00  0.69  0.00  0.00  0.00
  YS02001629YS02163301    1.00   0.11  0.01  0.00  0.88  0.00  0.00  0.00  0.00  0.00
  YS02001633YS02163601    1.00   0.00  0.01  0.00  0.99  0.00  0.00  0.00  0.16  0.00
  YS02001641YS02001644    1.00   0.00  0.00  0.00  1.00  0.00  0.00  0.00  0.00  0.00
  YS02001644YS02001647    1.00   0.00  0.13  0.00  0.87  0.00  0.00  0.00  0.00  0.00
  YS02001647YS02001649    1.00   0.00  0.13  0.00  0.43  0.44  0.00  0.00  0.57  0.00
  YS02001649YS02001757    1.00   0.00  0.00  0.00  0.54  0.46  0.00  0.00  0.48  0.00
  YS02001652YS02001649    1.00   0.00  0.00  0.00  0.96  0.04  0.00  0.00  0.80  0.00
  YS02001655YS02001652    1.00   0.00  0.00  0.00  0.20  0.02  0.00  0.78  0.05  0.00
  YS02001658YS02001655    1.00   0.00  0.10  0.00  0.51  0.39  0.00  0.00  0.75  0.00
  YS02001661YS02001658    1.00   0.10  0.00  0.00  0.32  0.58  0.00  0.00  0.73  0.00
  YS02001664YS02001661    1.00   0.09  0.00  0.00  0.74  0.16  0.00  0.00  0.86  0.00
  YS02001745YS02001748    1.00   0.00  0.00  0.00  0.05  0.01  0.00  0.94  0.03  0.00
  YS02001748YS02001751    1.00   0.00  0.00  0.00  0.71  0.29  0.00  0.00  0.80  0.00
  YS02001751YS02001754    1.00   0.00  0.00  0.00  0.16  0.01  0.00  0.84  0.03  0.00
  YS02001754YS02001757    1.00   0.00  0.00  0.00  1.00  0.00  0.00  0.00  0.88  0.00
  YS02001757CaochengTiaoxuchi    1.00   0.00  0.00  0.00  0.93  0.07  0.00  0.00  0.84  0.00
  YS02001759YS02001757    1.00   0.00  0.00  0.00  1.00  0.00  0.00  0.00  0.64  0.00
  YS02001762YS02001759    1.00   0.00  0.00  0.00  1.00  0.00  0.00  0.00  0.07  0.00
  YS02001765YS02001762    1.00   0.00  0.00  0.00  1.00  0.00  0.00  0.00  0.77  0.00
  YS02001767YS02001765    1.00   0.00  0.00  0.00  1.00  0.00  0.00  0.00  0.00  0.00
  YS02001770YS02001767    1.00   0.00  0.00  0.00  1.00  0.00  0.00  0.00  0.00  0.00
  YS02001774YS02001770    1.00   0.00  0.10  0.00  0.80  0.00  0.10  0.00  0.04  0.00
  YS02001779YS02001774    1.00   0.00  0.00  0.00  1.00  0.00  0.00  0.00  0.82  0.00
  YS02001783YS02001784    1.00   0.00  0.14  0.00  0.86  0.00  0.00  0.00  0.56  0.00
  YS02001784YS02001785    1.00   0.00  0.00  0.00  1.00  0.00  0.00  0.00  0.19  0.00
  YS02001786YS02001788    1.00   0.00  0.00  0.00  0.62  0.38  0.00  0.00  0.00  0.00
  YS02001788YS02001790    1.00   0.00  0.00  0.00  0.17  0.83  0.00  0.00  0.84  0.00
  YS02001790YS02001791    1.00   0.00  0.00  0.00  0.01  0.99  0.00  0.00  0.15  0.00
  YS02001791YS02001793    1.00   0.00  0.00  0.00  0.00  1.00  0.00  0.00  0.00  0.00
  YS02001793JiankangQianchi    1.00   0.00  0.00  0.00  0.98  0.02  0.00  0.00  0.98  0.00
  YS02001882YS02001884    1.00   0.11  0.01  0.00  0.88  0.00  0.00  0.00  0.00  0.00
  YS02001884YS02001887    1.00   0.06  0.03  0.00  0.91  0.00  0.00  0.00  0.00  0.00
  YS02001887YS02001890    1.00   0.00  0.00  0.00  0.96  0.00  0.03  0.00  0.00  0.00
  YS02001890YS02001895    1.00   0.00  0.12  0.00  0.88  0.00  0.00  0.00  0.00  0.00
  YS02001895YS02001898    1.00   0.12  0.00  0.00  0.86  0.00  0.02  0.00  0.00  0.00
  YS02001898YS02001901    1.00   0.12  0.01  0.00  0.87  0.00  0.00  0.00  0.01  0.00
  YS02001901YS02001904    1.00   0.12  0.00  0.00  0.88  0.00  0.00  0.00  0.00  0.00
  YS02001904YS02001907    1.00   0.00  0.12  0.00  0.88  0.00  0.00  0.00  0.00  0.00
  YS02001907YS02006553    1.00   0.00  0.02  0.00  0.97  0.00  0.00  0.00  0.00  0.00
  YS02001910YS02001907    1.00   0.00  0.00  0.00  0.96  0.00  0.00  0.03  0.12  0.00
  YS02001915YS02001910    1.00   0.00  0.00  0.00  0.97  0.03  0.00  0.00  0.18  0.00
  YS02001918YS02001915    1.00   0.00  0.00  0.00  0.97  0.02  0.00  0.00  0.78  0.00
  YS02001920YS02001918    1.00   0.00  0.00  0.00  1.00  0.00  0.00  0.00  0.00  0.00
  YS02001923YS02001920    1.00   0.00  0.00  0.00  1.00  0.00  0.00  0.00  0.95  0.00
  YS02001926YS02001923    1.00   0.00  0.07  0.00  0.05  0.00  0.88  0.00  0.00  0.00
  YS02001929YS02001926    1.00   0.00  0.09  0.00  0.91  0.00  0.00  0.00  0.84  0.00
  YS02006553YS02006556    1.00   0.01  0.00  0.00  0.99  0.00  0.00  0.00  0.03  0.00
  YS02006556YS02006558    1.00   0.00  0.00  0.00  1.00  0.00  0.00  0.00  0.00  0.00
  YS02006558YS02006561    1.00   0.14  0.00  0.00  0.05  0.81  0.00  0.00  0.19  0.00
  YS02006561YS02001783    1.00   0.14  0.00  0.00  0.09  0.77  0.00  0.00  0.70  0.00
  YS02163301YS02001633    1.00   0.00  0.11  0.00  0.89  0.00  0.00  0.00  0.00  0.00
  YS02163601YS02164001    1.00   0.00  0.07  0.00  0.93  0.00  0.00  0.00  0.00  0.00
  YS02164001YS02001641    1.00   0.01  0.06  0.00  0.93  0.00  0.00  0.00  0.06  0.00
  YSB1154YSB6556          1.00   0.09  0.00  0.00  0.91  0.00  0.00  0.00  0.02  0.00
  YSB1171HS02004479       1.00   0.04  0.00  0.00  0.94  0.00  0.00  0.01  0.11  0.00
  YSB1174YSB1171          1.00   0.05  0.02  0.00  0.92  0.00  0.00  0.00  0.00  0.00
  YSB6556YSB1171          1.00   0.05  0.05  0.00  0.91  0.00  0.00  0.00  0.00  0.00
  
  
  *************************
  Conduit Surcharge Summary
  *************************
  
  ----------------------------------------------------------------------------
                                                           Hours        Hours 
                         --------- Hours Full --------   Above Full   Capacity
  Conduit                Both Ends  Upstream  Dnstream   Normal Flow   Limited
  ----------------------------------------------------------------------------
  HS02004478WS02006287        0.27      0.27      0.41      0.01         0.01
  HS02004479HS02004480        0.41      0.41      0.44      0.01         0.01
  HS02004480HS02004478        0.36      0.41      0.36      1.32         0.36
  HS02004770HS02004777        0.33      0.33      0.33      0.08         0.05
  HS02004777HS02004785        0.29      0.29      0.33      0.01         0.01
  HS02004785HS02004788        0.28      0.29      0.28      1.02         0.27
  HS02004788HS02004792        0.28      0.28      0.38      0.01         0.01
  HS02004792HS02004799        0.38      0.38      0.48      0.01         0.01
  HS02004799HS02004480        0.41      0.41      0.48      0.55         0.01
  HS02004802HS02004478        0.37      0.37      0.43      0.01         0.01
  HS02004807HS02004802        0.40      0.40      0.42      0.10         0.10
  HS02004817HS02004807        0.40      0.40      0.85      0.01         0.01
  HS02004817HS02004824        0.29      0.29      0.85      0.01         0.01
  HS02004824HS02004830        0.26      0.26      0.29      0.01         0.01
  HS02004830HS02004837        0.23      0.23      0.26      0.01         0.01
  HS02004837HS02004842        0.23      0.23      0.35      0.01         0.01
  HS02004842HS02004848        0.21      0.21      0.35      0.01         0.01
  HS02004848HS02004852        0.21      0.21      0.23      0.03         0.01
  HS02004852HS02004856        0.22      0.22      0.24      0.02         0.01
  HS02004856HS02004862        0.21      0.21      0.24      0.01         0.01
  HS02004862HS02004870        0.24      0.24      0.25      0.02         0.01
  HS02004870HS02004876        0.25      0.25      0.32      0.01         0.01
  HS02004876HS02004881        0.30      0.32      0.30      1.05         0.30
  HS02004881HS02006253        0.30      0.30      1.30      0.01         0.01
  HS02004901HS02004770        0.33      0.33      0.34      0.01         0.01
  WS02003072WS02003073        0.01      0.01      0.01      2.07         0.01
  WS02004401WS02004402        1.21      1.21      1.24      1.01         1.01
  WS02004402WS02004403        1.24      1.24      1.25      1.20         1.17
  WS02004403WS02004404        1.25      1.25      1.40      0.01         0.01
  WS02004404WS02004405        1.34      1.40      1.34      2.70         1.34
  WS02004405WS02004406        1.29      1.34      1.29      1.48         1.29
  WS02004406WS02004407        0.01      0.01      1.29      0.01         0.01
  WS02004407WS02004409        0.01      0.01      0.70      0.01         0.01
  WS02004409WS02004410        0.63      0.70      0.63      1.07         0.63
  WS02004410WS02004411        0.57      0.63      0.57      1.14         0.57
  WS02004411WS02004412        0.50      0.57      0.50      1.18         0.50
  WS02004412WS02004413        0.50      0.50      0.97      0.01         0.01
  WS02004413WS02003067        0.01      0.01      0.97      0.01         0.01
  WS02006109WS02006110        1.46      1.46      1.70      1.46         0.01
  WS02006110WS02006113        0.92      0.92      1.68      0.23         0.01
  WS02006111WS02006112        0.88      0.88      2.01      0.01         0.01
  WS02006112WS02006115        1.07      1.07      1.52      0.01         0.01
  WS02006113WS02006111        0.90      0.92      0.90      1.02         0.90
  WS02006115WS02006116        1.09      1.09      1.10      1.07         1.06
  WS02006116WS02004401        1.20      1.20      1.21      1.15         1.13
  WS02006228WS02006109        1.64      1.70      1.64      2.20         1.64
  WS02006229WS02006228        1.63      1.66      1.63      2.05         1.63
  WS02006230WS02006229        1.76      1.82      1.76      2.84         0.98
  WS02006231WS02006230        1.38      1.38      1.39      2.31         0.67
  WS02006232WS02006231        1.39      1.39      1.48      0.01         0.10
  WS02006234WS02006232        1.40      1.40      1.48      0.01         0.03
  WS02006235WS02006234        1.38      1.38      1.39      2.09         0.65
  WS02006238WS02006235        1.40      1.40      1.42      0.01         0.23
  WS02006239WS02006238        1.41      1.41      1.41      0.89         0.26
  WS02006240WS02006239        1.39      1.39      1.39      0.89         0.25
  WS02006242WS02006240        1.39      1.39      1.46      1.14         0.56
  WS02006243WS02006242        1.39      1.40      1.41      0.01         0.02
  WS02006245WS02006243        1.39      1.39      1.39      0.39         0.23
  WS02006247WS02006245        1.39      1.40      1.39      1.77         0.57
  WS02006248WS02006247        1.39      1.39      1.39      0.01         0.02
  WS02006249WS02006248        1.38      1.38      1.39      0.91         0.01
  WS02006251WS02006249        1.37      1.39      1.39      1.48         1.26
  WS02006252WS02006251        1.60      1.60      1.64      1.36         0.01
  WS02006253WS02006251        1.37      1.38      1.39      0.52         0.03
  WS02006256WS02006235        2.32      2.35      6.87      0.50         0.01
  WS02006280WS02006229        0.51      0.51      0.61      0.01         0.01
  WS02006284WS02006280        0.43      0.43      0.49      0.01         0.01
  WS02006287WS02006284        0.36      0.36      0.44      0.13         0.13
  YS02001580YS02001583        0.33      0.33      0.37      0.01         0.01
  YS02001583YS02001586        0.34      0.34      0.44      0.01         0.01
  YS02001586YS02001590        0.44      0.44      0.50      0.01         0.01
  YS02001590YS02001593        0.50      0.50      0.51      0.52         0.01
  YS02001593YS02001596        0.51      0.51      0.59      0.01         0.01
  YS02001596YS02001600        0.63      0.63      0.71      0.01         0.01
  YS02001600YS02001601        0.77      0.77      1.02      0.01         0.01
  YS02001601YS02001602        0.93      0.93      1.06      0.73         0.01
  YS02001602YS02001605        0.88      0.88      0.93      1.96         0.01
  YS02001605YS02001607        0.83      0.88      0.83      0.99         0.83
  YS02001607YS02001610        0.45      0.45      0.48      0.01         0.01
  YS02001610YS02001613        0.45      0.45      0.48      0.01         0.01
  YS02001613YS02001616        0.41      0.41      0.45      0.01         0.01
  YS02001616YS02001619        0.40      0.40      0.41      0.01         0.01
  YS02001619YS02001622        0.40      0.40      0.40      0.53         0.38
  YS02001622YS02001625        0.40      0.40      0.55      0.01         0.01
  YS02001625YS02001629        0.36      0.36      0.55      0.01         0.01
  YS02001629YS02163301        0.53      0.53      0.54      0.23         0.20
  YS02001633YS02163601        0.56      0.56      0.58      0.35         0.34
  YS02001641YS02001644        0.45      0.48      0.45      1.11         0.44
  YS02001644YS02001647        0.28      0.28      0.45      0.04         0.01
  YS02001647YS02001649        0.28      0.28      0.34      0.01         0.01
  YS02001649YS02001757        0.33      0.34      0.35      0.28         0.21
  YS02001652YS02001649        0.23      0.23      0.34      0.01         0.01
  YS02001655YS02001652        0.12      0.12      0.22      0.01         0.01
  YS02001658YS02001655        0.03      0.03      0.12      0.01         0.01
  YS02001661YS02001658        0.01      0.01      0.03      0.01         0.01
  YS02001745YS02001748        0.01      0.01      0.01      0.01         0.01
  YS02001748YS02001751        0.01      0.01      0.06      0.01         0.01
  YS02001751YS02001754        0.06      0.06      0.13      0.01         0.01
  YS02001754YS02001757        0.16      0.16      0.35      0.01         0.01
  YS02001757CaochengTiaoxuchi        0.28      0.35      0.85      0.25         0.14
  YS02001759YS02001757        0.29      0.29      0.35      0.01         0.01
  YS02001762YS02001759        0.27      0.27      0.29      0.01         0.02
  YS02001765YS02001762        0.24      0.24      0.27      0.01         0.01
  YS02001767YS02001765        0.23      0.23      0.24      0.01         0.02
  YS02001770YS02001767        0.23      0.23      0.23      0.36         0.18
  YS02001774YS02001770        0.22      0.22      0.26      0.01         0.01
  YS02001779YS02001774        0.14      0.14      0.26      0.01         0.01
  YS02001783YS02001784        0.32      0.34      0.32      0.46         0.32
  YS02001784YS02001785        0.23      0.32      0.23      0.64         0.23
  YS02001786YS02001788        0.01      0.23      0.01      0.55         0.01
  YS02001790YS02001791        0.01      0.01      0.01      0.31         0.01
  YS02001793JiankangQianchi        0.01      0.01      6.19      0.01         0.01
  YS02001882YS02001884        0.29      0.29      0.30      0.01         0.01
  YS02001884YS02001887        0.32      0.32      0.33      0.01         0.01
  YS02001887YS02001890        0.34      0.34      0.35      0.01         0.01
  YS02001890YS02001895        0.28      0.28      0.37      0.01         0.01
  YS02001895YS02001898        0.28      0.28      0.28      0.01         0.01
  YS02001898YS02001901        0.28      0.28      0.32      0.01         0.01
  YS02001901YS02001904        0.31      0.31      0.32      0.01         0.01
  YS02001904YS02001907        0.31      0.31      0.54      0.01         0.01
  YS02001907YS02006553        0.65      0.65      0.70      0.01         0.01
  YS02001910YS02001907        0.37      0.37      0.52      0.01         0.01
  YS02001915YS02001910        0.29      0.29      0.37      0.01         0.01
  YS02001918YS02001915        0.22      0.22      0.29      0.01         0.01
  YS02001920YS02001918        0.22      0.22      0.23      0.01         0.01
  YS02001923YS02001920        0.18      0.18      0.23      0.01         0.01
  YS02001926YS02001923        0.01      0.01      0.01      0.01         0.01
  YS02001929YS02001926        0.01      0.01      0.01      0.01         0.01
  YS02006553YS02006556        0.44      0.44      0.54      0.01         0.01
  YS02006556YS02006558        0.49      0.49      0.55      0.01         0.01
  YS02006558YS02006561        0.25      0.43      0.25      0.61         0.25
  YS02006561YS02001783        0.19      0.19      0.34      0.01         0.01
  YS02163301YS02001633        0.54      0.54      0.58      0.01         0.01
  YS02163601YS02164001        0.49      0.49      0.58      0.13         0.01
  YS02164001YS02001641        0.48      0.49      0.48      0.57         0.43
  YSB1154YSB6556              0.47      0.47      0.57      0.01         0.01
  YSB1171HS02004479           0.38      0.38      0.57      0.01         0.01
  YSB1174YSB1171              0.52      0.52      0.76      0.01         0.01
  YSB6556YSB1171              0.47      0.47      0.90      0.01         0.01
  
  
  ***************
  Pumping Summary
  ***************
  
  ---------------------------------------------------------------------------------------------------------
                                                  Min       Avg       Max     Total     Power    % Time Off
                        Percent   Number of      Flow      Flow      Flow    Volume     Usage    Pump Curve
  Pump                 Utilized   Start-Ups       LPS       LPS       LPS  10^6 ltr     Kw-hr    Low   High
  ---------------------------------------------------------------------------------------------------------
  CC-R1                   17.25          28      0.00    683.00    683.00     3.392     60.02    0.0   47.6
  CC-R2                   14.41          36      0.00    683.00    683.00     2.835     49.76    0.0   53.9
  CC-S1                   22.26          26      0.00    200.00    200.00     1.282      9.15    0.0    0.0
  CC-S2                   19.69          23      0.00    200.00    200.00     1.134      8.08    0.0    0.0
  JK-R1                    4.76          17      0.00   1000.00   1000.00     1.370     13.09    0.0    0.0
  JK-R2                    3.01          18      0.00   1000.00   1000.00     0.867      7.51    0.0    0.0
  JK-S                    10.00          42      0.00    300.00    300.00     0.864     14.99    0.0    0.0
  XR-1                    97.91           2      0.00     95.00     95.00     2.679      9.63    0.0    0.0
  XR-2                    93.94           2      0.00     95.00     95.00     2.570      8.79    0.0    0.0
  XR-3                     0.00           1      0.00     95.00     95.00     0.000      0.00    0.0    0.0
  XR-4                     0.00           1      0.00     95.00     95.00     0.000      0.00    0.0    0.0
  

  Analysis begun on:  Fri Feb 24 05:44:13 2023
  Analysis ended on:  Fri Feb 24 05:44:16 2023
  Total elapsed time: 00:00:03