
  OWA STORM WATER MANAGEMENT MODEL - VERSION v5.1.14 (OWA 2023-01-25)
  --------------------------------------------------------------

  WARNING 04: minimum elevation drop used for Conduit WS02004404WS02004405
  WARNING 03: negative offset ignored for Link YS02001904YS02001907
  
  *********************************************************
  NOTE: The summary statistics displayed in this report are
  based on results found at every computational time step,  
  not just on results from each reporting time step.
  *********************************************************
  
  ****************
  Analysis Options
  ****************
  Flow Units ............... LPS
  Process Models:
    Rainfall/Runoff ........ YES
    RDII ................... NO
    Snowmelt ............... NO
    Groundwater ............ NO
    Flow Routing ........... YES
    Ponding Allowed ........ NO
    Water Quality .......... NO
  Infiltration Method ...... HORTON
  Flow Routing Method ...... DYNWAVE
  Surcharge Method ......... EXTRAN
  Starting Date ............ 08/28/2015 08:00:00
  Ending Date .............. 08/28/2015 16:00:00
  Antecedent Dry Days ...... 8.0
  Report Time Step ......... 00:01:00
  Wet Time Step ............ 00:01:00
  Dry Time Step ............ 00:01:00
  Routing Time Step ........ 30.00 sec
  Variable Time Step ....... YES
  Maximum Trials ........... 8
  Number of Threads ........ 1
  Head Tolerance ........... 0.001500 m
  
  
  **************************        Volume         Depth
  Runoff Quantity Continuity     hectare-m            mm
  **************************     ---------       -------
  Total Precipitation ......         4.378        72.264
  Evaporation Loss .........         0.000         0.000
  Infiltration Loss ........         0.250         4.131
  Surface Runoff ...........         4.067        67.140
  Final Storage ............         0.061         1.008
  Continuity Error (%) .....        -0.021
  
  
  **************************        Volume        Volume
  Flow Routing Continuity        hectare-m      10^6 ltr
  **************************     ---------     ---------
  Dry Weather Inflow .......         0.630         6.296
  Wet Weather Inflow .......         4.067        40.670
  Groundwater Inflow .......         0.000         0.000
  RDII Inflow ..............         0.000         0.000
  External Inflow ..........         0.105         1.045
  External Outflow .........         2.698        26.981
  Flooding Loss ............         2.095        20.946
  Evaporation Loss .........         0.000         0.000
  Exfiltration Loss ........         0.000         0.000
  Initial Stored Volume ....         0.303         3.031
  Final Stored Volume ......         0.322         3.219
  Continuity Error (%) .....        -0.205
  
  
  *************************
  Highest Continuity Errors
  *************************
  Node YS02001884 (5.13%)
  Node YS02001583 (-3.18%)
  Node HS02004842 (1.65%)
  Node WS02006256 (-1.04%)
  
  
  ***************************
  Time-Step Critical Elements
  ***************************
  Link WS02006252WS02006251 (29.10%)
  Link WS02006280WS02006229 (24.68%)
  Link WS02006238WS02006235 (15.94%)
  Link YS02001791YS02001793 (6.80%)
  Link WS02004404WS02004405 (6.08%)
  
  
  ********************************
  Highest Flow Instability Indexes
  ********************************
  Link WS02006113WS02006111 (40)
  Link WS02006111WS02006112 (23)
  Link WS02006238WS02006235 (21)
  Link WS02006229WS02006228 (20)
  Link WS02004404WS02004405 (20)
  
  
  *************************
  Routing Time Step Summary
  *************************
  Minimum Time Step           :     0.01 sec
  Average Time Step           :     1.82 sec
  Maximum Time Step           :     6.46 sec
  Percent in Steady State     :    -0.00
  Average Iterations per Step :     3.38
  Percent Not Converging      :    14.06
  
  
  ***************************
  Subcatchment Runoff Summary
  ***************************
  
  ------------------------------------------------------------------------------------------------------------------------------
                            Total      Total      Total      Total     Imperv       Perv      Total       Total     Peak  Runoff
                           Precip      Runon       Evap      Infil     Runoff     Runoff     Runoff      Runoff   Runoff   Coeff
  Subcatchment                 mm         mm         mm         mm         mm         mm         mm    10^6 ltr      LPS
  ------------------------------------------------------------------------------------------------------------------------------
  sub0                      72.26       0.00       0.00       1.02      65.96       4.04      70.00        0.06    42.33   0.969
  sub1                      72.26       0.00       0.00       1.75      63.07       6.20      69.27        0.46   297.98   0.959
  sub10                     72.26       0.00       0.00       1.23      65.20       4.55      69.76        0.77   505.82   0.965
  sub11                     72.26       0.00       0.00       1.21      65.22       4.57      69.80        0.81   557.34   0.966
  sub12                     72.26       0.00       0.00       1.97      61.70       7.43      69.13        0.60   441.91   0.957
  sub14                     72.26       0.00       0.00       1.38      64.51       5.12      69.63        0.66   446.45   0.964
  sub15                     72.26       0.00       0.00       5.50      49.62      16.19      65.80        1.13   713.71   0.911
  sub16                     72.26       0.00       0.00       5.66      47.51      18.19      65.70        0.69   473.77   0.909
  sub17                     72.26       0.00       0.00       5.52      48.22      17.61      65.83        0.56   385.26   0.911
  sub2                      72.26       0.00       0.00       7.88      44.62      18.86      63.48        0.59   320.06   0.879
  sub22                     72.26       0.00       0.00       8.35      40.41      22.73      63.14        3.99  2433.08   0.874
  sub23                     72.26       0.00       0.00       6.79      44.67      19.95      64.62        3.08  1984.67   0.894
  sub3                      72.26       0.00       0.00       8.57      44.58      18.17      62.76        1.41   698.51   0.868
  sub4                      72.26       0.00       0.00       1.97      62.90       5.98      68.87        1.44   752.35   0.953
  sub5                      72.26       0.00       0.00       1.07      65.90       3.99      69.89        0.79   512.21   0.967
  sub60                     72.26       0.00       0.00       1.86      62.39       6.82      69.21        0.91   632.25   0.958
  sub61                     72.26       0.00       0.00       2.70      58.85       9.59      68.44        1.26   879.85   0.947
  sub62                     72.26       0.00       0.00       1.24      65.20       4.55      69.74        1.91  1241.64   0.965
  sub63                     72.26       0.00       0.00       5.02      50.34      15.94      66.28        1.50  1010.21   0.917
  sub64                     72.26       0.00       0.00       2.53      60.22       8.31      68.53        1.65  1022.90   0.948
  sub65                     72.26       0.00       0.00       2.19      61.62       7.20      68.82        1.89  1143.15   0.952
  sub66                     72.26       0.00       0.00       6.27      50.23      14.69      64.92        3.03  1556.92   0.898
  sub67                     72.26       0.00       0.00       1.19      65.24       4.60      69.84        1.30   939.24   0.966
  sub68                     72.26       0.00       0.00       2.24      60.96       7.88      68.84        1.89  1274.23   0.953
  sub69                     72.26       0.00       0.00       2.03      61.31       8.81      70.12        2.60  1517.98   0.970
  sub7                      72.26       0.00       0.00       1.36      64.52       5.15      69.67        0.23   164.44   0.964
  sub70                     72.26       0.00       0.00       6.82      47.53      17.75      65.28        1.89   875.27   0.903
  sub71                     72.26       0.00       0.00       1.27      65.16       4.51      69.66        1.82  1101.54   0.964
  sub72                     72.26       0.00       0.00       1.14      65.80       3.92      69.72        0.96   537.45   0.965
  sub8                      72.26       0.00       0.00       1.38      64.51       5.13      69.64        0.45   303.14   0.964
  sub9                      72.26       0.00       0.00       1.38      64.51       5.13      69.63        0.33   226.75   0.964
  
  
  ******************
  Node Depth Summary
  ******************
  
  ---------------------------------------------------------------------------------
                                 Average  Maximum  Maximum  Time of Max    Reported
                                   Depth    Depth      HGL   Occurrence   Max Depth
  Node                 Type       Meters   Meters   Meters  days hr:min      Meters
  ---------------------------------------------------------------------------------
  HS02004478           JUNCTION     0.21     1.59    10.81     0  02:28        1.59
  HS02004479           JUNCTION     0.28     1.70    10.90     0  02:14        1.67
  HS02004480           JUNCTION     0.24     1.74    10.98     0  02:35        1.74
  HS02004770           JUNCTION     0.25     1.42    11.25     0  02:11        1.42
  HS02004777           JUNCTION     0.27     1.48    11.28     0  02:11        1.46
  HS02004785           JUNCTION     0.17     1.47    11.37     0  02:11        1.39
  HS02004788           JUNCTION     0.14     1.42    11.32     0  02:11        1.40
  HS02004792           JUNCTION     0.19     1.60    11.12     0  02:14        1.60
  HS02004799           JUNCTION     0.30     1.76    10.97     0  02:14        1.76
  HS02004802           JUNCTION     0.31     1.80    10.93     0  02:22        1.80
  HS02004807           JUNCTION     0.28     1.92    11.09     0  02:21        1.92
  HS02004817           JUNCTION     0.58     2.41    11.26     0  02:23        2.41
  HS02004824           JUNCTION     0.16     2.01    11.41     0  02:12        2.01
  HS02004830           JUNCTION     0.16     2.03    11.50     0  02:12        2.03
  HS02004837           JUNCTION     0.14     1.95    11.53     0  02:14        1.93
  HS02004842           JUNCTION     0.43     2.22    11.49     0  02:14        2.22
  HS02004848           JUNCTION     0.12     1.96    11.56     0  02:23        1.96
  HS02004852           JUNCTION     0.12     2.12    11.63     0  02:14        1.98
  HS02004856           JUNCTION     0.18     2.04    11.46     0  02:23        2.04
  HS02004862           JUNCTION     0.14     2.00    11.38     0  02:23        2.00
  HS02004870           JUNCTION     0.13     2.03    11.31     0  02:23        2.03
  HS02004876           JUNCTION     0.18     2.11    11.14     0  02:23        2.11
  HS02004881           JUNCTION     0.12     1.86    10.89     0  02:25        1.85
  HS02004901           JUNCTION     0.26     1.42    11.24     0  02:11        1.42
  WS02001211           JUNCTION     0.64     0.82     5.66     0  02:28        0.82
  WS02001212           JUNCTION     0.38     0.58     5.65     0  02:27        0.58
  WS02001213           JUNCTION     0.61     0.88     5.64     0  02:27        0.88
  WS02003059           JUNCTION     0.67     0.95     5.63     0  02:26        0.95
  WS02003060           JUNCTION     0.41     0.69     5.63     0  02:26        0.69
  WS02003066           JUNCTION     0.26     0.46     6.02     0  02:25        0.46
  WS02003067           JUNCTION     0.60     0.89     6.21     0  02:24        0.89
  WS02003069           JUNCTION     0.46     0.79     5.37     0  02:26        0.79
  WS02003072           JUNCTION     0.51     0.82     5.19     0  02:27        0.82
  WS02003073           JUNCTION     0.31     0.52     4.59     0  02:27        0.52
  WS02004138           JUNCTION     0.13     0.14     7.39     0  00:32        0.14
  WS02004139           JUNCTION     0.57     0.75     5.66     0  02:28        0.75
  WS02004401           JUNCTION     0.82     1.97     7.97     0  02:25        1.95
  WS02004402           JUNCTION     0.84     1.90     7.86     0  02:25        1.90
  WS02004403           JUNCTION     0.84     1.82     7.75     0  02:25        1.81
  WS02004404           JUNCTION     0.91     1.82     7.67     0  02:25        1.82
  WS02004405           JUNCTION     0.89     1.77     7.62     0  02:25        1.76
  WS02004406           JUNCTION     0.88     1.65     7.48     0  02:25        1.65
  WS02004407           JUNCTION     0.29     0.99     7.31     0  02:25        0.99
  WS02004409           JUNCTION     0.60     1.43     7.20     0  02:24        1.42
  WS02004410           JUNCTION     0.60     1.33     7.05     0  02:24        1.32
  WS02004411           JUNCTION     0.60     1.23     6.91     0  02:25        1.23
  WS02004412           JUNCTION     0.60     1.12     6.76     0  02:25        1.12
  WS02004413           JUNCTION     0.74     1.16     6.63     0  02:25        1.15
  WS02006109           JUNCTION     1.04     2.64     9.26     0  02:11        2.64
  WS02006110           JUNCTION     0.98     2.43     9.01     0  02:25        2.42
  WS02006111           JUNCTION     0.44     1.84     8.55     0  02:25        1.84
  WS02006112           JUNCTION     1.05     2.50     8.38     0  02:25        2.50
  WS02006113           JUNCTION     0.54     1.89     8.79     0  02:25        1.89
  WS02006115           JUNCTION     0.75     2.07     8.21     0  02:25        2.07
  WS02006116           JUNCTION     0.82     2.06     8.10     0  02:25        2.06
  WS02006228           JUNCTION     1.10     3.03     9.68     0  02:29        3.03
  WS02006229           JUNCTION     1.11     3.22     9.92     0  02:26        3.22
  WS02006230           JUNCTION     1.06     2.65     9.39     0  02:06        2.65
  WS02006231           JUNCTION     0.78     2.20     9.32     0  02:20        2.20
  WS02006232           JUNCTION     0.89     2.18     9.22     0  02:06        2.18
  WS02006234           JUNCTION     0.79     1.96     9.12     0  02:03        1.96
  WS02006235           JUNCTION     0.81     2.00     9.16     0  02:59        2.00
  WS02006238           JUNCTION     0.83     2.03     9.18     0  02:59        2.02
  WS02006239           JUNCTION     0.79     1.94     9.15     0  02:35        1.94
  WS02006240           JUNCTION     0.74     1.76     9.06     0  01:52        1.76
  WS02006242           JUNCTION     0.79     1.55     8.82     0  01:35        1.55
  WS02006243           JUNCTION     0.68     1.48     8.90     0  01:35        1.38
  WS02006245           JUNCTION     0.66     1.47     8.95     0  01:35        1.29
  WS02006247           JUNCTION     0.67     1.33     8.83     0  01:35        1.23
  WS02006248           JUNCTION     0.62     1.10     8.69     0  01:35        1.10
  WS02006249           JUNCTION     0.64     1.09     8.69     0  01:38        1.09
  WS02006251           JUNCTION     0.73     2.16     9.83     0  02:25        2.16
  WS02006252           JUNCTION     0.50     1.50     9.74     0  00:00        1.50
  WS02006253           JUNCTION     0.80     3.14    10.78     0  02:25        3.14
  WS02006256           JUNCTION     1.10     2.35     9.28     0  00:00        2.35
  WS02006280           JUNCTION     0.27     1.74    10.01     0  02:28        1.74
  WS02006284           JUNCTION     0.53     1.95    10.35     0  02:22        1.94
  WS02006287           JUNCTION     0.27     1.75    10.70     0  02:23        1.75
  WSF200               JUNCTION     0.26     0.53     5.76     0  02:25        0.53
  YS02001580           JUNCTION     0.08     1.05     9.59     0  02:09        0.77
  YS02001583           JUNCTION     0.11     1.14     9.64     0  02:09        0.83
  YS02001586           JUNCTION     0.18     1.13     9.30     0  02:09        1.13
  YS02001590           JUNCTION     0.27     1.38     9.24     0  02:23        1.38
  YS02001593           JUNCTION     0.20     1.30     9.16     0  02:35        1.29
  YS02001596           JUNCTION     0.28     1.66     9.08     0  02:35        1.65
  YS02001600           JUNCTION     0.34     1.87     9.00     0  02:35        1.87
  YS02001601           JUNCTION     0.52     2.06     8.90     0  02:08        2.06
  YS02001602           JUNCTION     0.44     1.87     8.77     0  02:12        1.87
  YS02001605           JUNCTION     0.41     1.78     8.68     0  02:35        1.77
  YS02001607           JUNCTION     0.41     1.68     8.53     0  02:35        1.68
  YS02001610           JUNCTION     0.45     1.68     8.48     0  02:12        1.68
  YS02001613           JUNCTION     0.41     1.69     8.53     0  02:35        1.68
  YS02001616           JUNCTION     0.34     1.61     8.52     0  02:24        1.60
  YS02001619           JUNCTION     0.32     1.61     8.54     0  02:23        1.61
  YS02001622           JUNCTION     0.31     1.60     8.50     0  02:35        1.58
  YS02001625           JUNCTION     0.57     1.78     8.38     0  02:13        1.78
  YS02001629           JUNCTION     0.43     1.85     8.40     0  02:15        1.85
  YS02001633           JUNCTION     0.51     2.08     8.53     0  02:35        2.07
  YS02001641           JUNCTION     0.49     2.10     8.54     0  02:35        1.95
  YS02001644           JUNCTION     0.49     1.92     8.35     0  02:16        1.92
  YS02001647           JUNCTION     0.29     1.80     8.41     0  02:35        1.77
  YS02001649           JUNCTION     0.33     2.00     8.39     0  02:21        2.00
  YS02001652           JUNCTION     0.23     1.88     8.48     0  02:21        1.84
  YS02001655           JUNCTION     0.18     1.70     8.55     0  02:21        1.65
  YS02001658           JUNCTION     0.13     1.45     8.60     0  02:21        1.40
  YS02001661           JUNCTION     0.15     1.38     8.78     0  02:21        1.20
  YS02001664           JUNCTION     0.05     0.68     8.60     0  02:24        0.67
  YS02001745           JUNCTION     0.07     0.91     8.43     0  02:24        0.91
  YS02001748           JUNCTION     0.12     1.33     8.41     0  02:24        1.33
  YS02001751           JUNCTION     0.15     1.51     8.39     0  02:24        1.51
  YS02001754           JUNCTION     0.21     1.76     8.37     0  02:24        1.74
  YS02001757           JUNCTION     0.36     2.08     8.34     0  02:24        2.08
  YS02001759           JUNCTION     0.30     2.06     8.42     0  02:24        2.06
  YS02001762           JUNCTION     0.29     2.03     8.43     0  02:24        2.03
  YS02001765           JUNCTION     0.27     1.98     8.43     0  02:24        1.98
  YS02001767           JUNCTION     0.27     1.96     8.45     0  02:23        1.95
  YS02001770           JUNCTION     0.28     1.95     8.45     0  02:23        1.95
  YS02001774           JUNCTION     0.34     2.00     8.42     0  02:24        2.00
  YS02001779           JUNCTION     0.19     1.68     8.37     0  02:18        1.68
  YS02001783           JUNCTION     0.22     1.27     7.41     0  02:35        1.23
  YS02001784           JUNCTION     0.23     1.13     7.20     0  02:35        1.12
  YS02001786           JUNCTION     0.20     0.90     6.93     0  02:35        0.87
  YS02001788           JUNCTION     0.14     0.62     6.60     0  02:21        0.62
  YS02001790           JUNCTION     0.17     0.73     6.37     0  02:20        0.72
  YS02001791           JUNCTION     0.11     0.44     5.91     0  02:27        0.44
  YS02001793           JUNCTION     0.06     0.27     5.10     0  02:25        0.26
  YS02001882           JUNCTION     0.28     1.70     8.41     0  02:23        1.70
  YS02001884           JUNCTION     0.37     1.79     8.41     0  02:23        1.79
  YS02001887           JUNCTION     0.44     1.90     8.43     0  02:23        1.90
  YS02001890           JUNCTION     0.47     1.81     8.32     0  02:16        1.81
  YS02001895           JUNCTION     0.25     1.57     8.32     0  02:35        1.56
  YS02001898           JUNCTION     0.26     1.58     8.31     0  02:35        1.55
  YS02001901           JUNCTION     0.37     1.72     8.33     0  02:35        1.72
  YS02001904           JUNCTION     0.35     1.64     8.27     0  02:35        1.64
  YS02001907           JUNCTION     0.66     1.96     8.25     0  02:15        1.96
  YS02001910           JUNCTION     0.47     1.97     8.48     0  02:16        1.96
  YS02001915           JUNCTION     0.28     1.92     8.64     0  02:16        1.89
  YS02001918           JUNCTION     0.15     1.81     8.88     0  02:16        1.55
  YS02001920           JUNCTION     0.23     1.99     9.00     0  02:16        1.62
  YS02001923           JUNCTION     0.11     1.82     9.08     0  02:16        1.39
  YS02001926           JUNCTION     0.15     1.68     9.12     0  02:16        1.22
  YS02001929           JUNCTION     0.08     1.53     9.23     0  02:16        0.99
  YS02006553           JUNCTION     0.67     2.03     8.32     0  02:35        1.98
  YS02006556           JUNCTION     0.64     2.07     8.38     0  02:35        2.00
  YS02006558           JUNCTION     0.68     2.08     8.35     0  02:23        2.08
  YS02006561           JUNCTION     0.14     0.95     7.61     0  02:35        0.90
  YS02163301           JUNCTION     0.45     2.00     8.51     0  02:35        1.93
  YS02163601           JUNCTION     0.55     2.08     8.48     0  02:35        2.05
  YS02164001           JUNCTION     0.48     2.10     8.56     0  02:35        1.95
  YSB1154              JUNCTION     0.41     2.06    11.12     0  02:23        2.06
  YSB1171              JUNCTION     0.55     1.95    10.85     0  02:14        1.95
  YSB1174              JUNCTION     0.36     1.87    10.97     0  02:23        1.87
  YSB6556              JUNCTION     0.31     1.80    10.97     0  02:23        1.80
  CC-1                 OUTFALL      0.00     0.00     0.00     0  00:00        0.00
  CC-2                 OUTFALL      0.00     0.00     0.00     0  00:00        0.00
  JK-1                 OUTFALL      0.00     0.00     0.00     0  00:00        0.00
  JK-2                 OUTFALL      0.00     0.00     0.00     0  00:00        0.00
  WSC                  OUTFALL      0.31     0.52     1.19     0  02:28        0.52
  CC-storage           STORAGE      0.86     1.84     7.34     0  02:47        1.84
  JK-storage           STORAGE      1.38     4.17     4.97     0  02:15        4.16
  XR-storage           STORAGE      7.94     9.26     7.26     0  08:00        9.26
  
  
  *******************
  Node Inflow Summary
  *******************
  
  -------------------------------------------------------------------------------------------------
                                  Maximum  Maximum                  Lateral       Total        Flow
                                  Lateral    Total  Time of Max      Inflow      Inflow     Balance
                                   Inflow   Inflow   Occurrence      Volume      Volume       Error
  Node                 Type           LPS      LPS  days hr:min    10^6 ltr    10^6 ltr     Percent
  -------------------------------------------------------------------------------------------------
  HS02004478           JUNCTION      0.00  2303.93     0  02:23           0        9.41      -0.008
  HS02004479           JUNCTION      0.00   383.22     0  02:15           0        0.93       0.102
  HS02004480           JUNCTION      0.00  2050.44     0  02:14           0        6.94       0.038
  HS02004770           JUNCTION   1984.67  1984.67     0  02:25        3.08        3.33       0.091
  HS02004777           JUNCTION      0.03   691.46     0  02:11    0.000864           2       0.261
  HS02004785           JUNCTION      0.15   697.86     0  02:11     0.00432           2       0.029
  HS02004788           JUNCTION    715.38   878.26     0  02:25        1.18        3.18       0.012
  HS02004792           JUNCTION   2433.36  3312.41     0  02:25           4        7.17       0.008
  HS02004799           JUNCTION    446.45  1713.47     0  02:12       0.663        6.29       0.044
  HS02004802           JUNCTION      0.00  1233.18     0  02:28           0        2.64       0.156
  HS02004807           JUNCTION    557.34  1752.93     0  02:25       0.811        2.85       0.149
  HS02004817           JUNCTION      0.60  1197.01     0  02:27      0.0173         2.1       0.812
  HS02004824           JUNCTION    752.40  1328.62     0  02:26        1.44         2.3       0.022
  HS02004830           JUNCTION      0.15   576.55     0  02:25     0.00432        1.06       0.107
  HS02004837           JUNCTION    512.17   760.95     0  02:12       0.952        1.39       0.062
  HS02004842           JUNCTION      0.00   735.42     0  02:14           0       0.794       1.675
  HS02004848           JUNCTION    698.51   977.80     0  02:14        1.41        1.98       0.011
  HS02004852           JUNCTION      0.00   952.80     0  02:14           0        1.77       0.006
  HS02004856           JUNCTION    226.75  1000.38     0  02:14       0.335        2.11       0.072
  HS02004862           JUNCTION    320.26  1079.07     0  02:13       0.597         2.7       0.031
  HS02004870           JUNCTION    303.14  1248.69     0  02:27       0.445        3.13      -0.005
  HS02004876           JUNCTION    297.98  1511.39     0  02:27       0.461        3.59       0.021
  HS02004881           JUNCTION    164.44  1664.01     0  02:25       0.235        3.82       0.011
  HS02004901           JUNCTION    473.77   739.28     0  02:25       0.688        1.08       0.163
  WS02001211           JUNCTION      7.35   206.29     0  03:05       0.212        5.44       0.611
  WS02001212           JUNCTION      0.00   215.27     0  03:05           0        5.41       0.284
  WS02001213           JUNCTION      0.00   220.19     0  03:04           0        5.39       0.337
  WS02003059           JUNCTION      0.00   225.68     0  03:04           0        5.38       0.597
  WS02003060           JUNCTION     16.53  1534.47     0  02:26       0.476          17       0.087
  WS02003066           JUNCTION      0.00  1336.53     0  02:25           0        11.2       0.015
  WS02003067           JUNCTION      0.00  1335.63     0  02:25           0        11.2       0.039
  WS02003069           JUNCTION      0.32  1534.67     0  02:26     0.00922          17       0.092
  WS02003072           JUNCTION      0.00  1534.44     0  02:27           0          17       0.124
  WS02003073           JUNCTION      1.82  1536.52     0  02:27      0.0524          17       0.129
  WS02004138           JUNCTION      0.00   380.00     0  00:00           0        5.25       0.053
  WS02004139           JUNCTION      0.32   190.32     0  00:32     0.00924        5.26       0.508
  WS02004401           JUNCTION      0.00  1336.75     0  02:25           0        11.3       0.094
  WS02004402           JUNCTION      0.00  1337.11     0  02:25           0        11.3       0.096
  WS02004403           JUNCTION      0.00  1337.63     0  02:25           0        11.3       0.092
  WS02004404           JUNCTION      0.16  1337.18     0  02:25     0.00467        11.3       0.079
  WS02004405           JUNCTION      0.04  1338.81     0  02:25      0.0011        11.3       0.110
  WS02004406           JUNCTION      0.00  1338.24     0  02:25           0        11.3       0.191
  WS02004407           JUNCTION      0.00  1338.02     0  02:25           0        11.2       0.013
  WS02004409           JUNCTION      0.00  1335.85     0  02:25           0        11.2       0.030
  WS02004410           JUNCTION      0.00  1335.83     0  02:25           0        11.2       0.047
  WS02004411           JUNCTION      0.00  1335.75     0  02:25           0        11.2       0.056
  WS02004412           JUNCTION      0.00  1335.65     0  02:25           0        11.2       0.073
  WS02004413           JUNCTION      0.00  1335.74     0  02:25           0        11.2       0.133
  WS02006109           JUNCTION      1.23  1288.97     0  02:23      0.0354        11.1       0.096
  WS02006110           JUNCTION      0.00  1126.14     0  02:41           0        10.8       0.071
  WS02006111           JUNCTION      0.00  1126.13     0  02:41           0        10.8       0.002
  WS02006112           JUNCTION    385.26  1337.23     0  02:25       0.565        11.3       0.181
  WS02006113           JUNCTION      0.00  1126.22     0  02:41           0        10.8       0.029
  WS02006115           JUNCTION      0.00  1337.34     0  02:25           0        11.3       0.064
  WS02006116           JUNCTION      0.00  1337.12     0  02:25           0        11.3       0.022
  WS02006228           JUNCTION      0.00  1288.04     0  02:22           0        11.1       0.035
  WS02006229           JUNCTION      0.00  2304.82     0  02:21           0        13.7       0.063
  WS02006230           JUNCTION     10.28  1026.26     0  02:22       0.296        6.91       0.117
  WS02006231           JUNCTION      0.00   562.09     0  04:05           0        5.57      -0.054
  WS02006232           JUNCTION      0.00   561.32     0  04:05           0        5.57       0.102
  WS02006234           JUNCTION      0.00   557.55     0  04:05           0        5.56      -0.130
  WS02006235           JUNCTION      0.00   549.16     0  04:05           0        5.57       0.147
  WS02006238           JUNCTION      0.00   431.50     0  04:11           0        5.36      -0.125
  WS02006239           JUNCTION      0.00   430.30     0  04:11           0        5.33      -0.211
  WS02006240           JUNCTION      0.00   432.11     0  04:10           0        5.31      -0.010
  WS02006242           JUNCTION      0.00   432.40     0  04:10           0         5.3      -0.003
  WS02006243           JUNCTION      0.00   445.67     0  01:34           0        4.85      -0.265
  WS02006245           JUNCTION      0.00   467.72     0  01:32           0        4.86       0.238
  WS02006247           JUNCTION      0.00   469.13     0  01:33           0        4.86      -0.034
  WS02006248           JUNCTION      0.00   487.48     0  01:32           0        5.13       0.003
  WS02006249           JUNCTION      0.00  1379.07     0  02:25           0        8.55       0.066
  WS02006251           JUNCTION      0.08  1706.85     0  02:25     0.00222         8.8      -0.000
  WS02006252           JUNCTION      0.00   729.84     0  02:25           0        5.52      -0.245
  WS02006253           JUNCTION     42.33  1706.30     0  02:24      0.0567        3.96       0.010
  WS02006256           JUNCTION      0.00   300.00     0  00:00           0        1.15      -1.029
  WS02006280           JUNCTION      0.00  2304.04     0  02:23           0         9.4       0.001
  WS02006284           JUNCTION      0.10  2303.76     0  02:23     0.00275         9.4       0.004
  WS02006287           JUNCTION      0.00  2304.43     0  02:22           0         9.4       0.010
  WSF200               JUNCTION      0.00  1336.73     0  02:25           0        11.2       0.006
  YS02001580           JUNCTION      0.00    71.79     0  02:09           0     0.00406      -1.106
  YS02001583           JUNCTION      0.00   105.93     0  02:08           0      0.0157      -3.079
  YS02001586           JUNCTION    875.27   875.43     0  02:26        1.89         1.9       0.051
  YS02001590           JUNCTION      0.00   318.32     0  02:35           0        1.43      -0.019
  YS02001593           JUNCTION      0.00   318.08     0  02:35           0        1.43       0.010
  YS02001596           JUNCTION      0.00   318.00     0  02:35           0        1.43      -0.008
  YS02001600           JUNCTION      0.00   318.06     0  02:44           0        1.43       0.024
  YS02001601           JUNCTION   1517.98  1835.44     0  02:25         2.6        4.02       0.022
  YS02001602           JUNCTION      0.00   492.22     0  02:08           0        2.44       0.019
  YS02001605           JUNCTION      0.00   493.06     0  02:08           0        2.31       0.023
  YS02001607           JUNCTION      0.00   493.42     0  02:08           0        2.31       0.088
  YS02001610           JUNCTION      0.00   875.02     0  02:26           0        2.62       0.094
  YS02001613           JUNCTION      0.00   539.07     0  02:26           0         2.1       0.086
  YS02001616           JUNCTION      0.00   539.09     0  02:26           0         2.1       0.015
  YS02001619           JUNCTION   1556.92  1556.92     0  02:26        3.03        4.82       0.003
  YS02001622           JUNCTION      0.00  1023.33     0  02:25           0         4.5       0.000
  YS02001625           JUNCTION      0.00  1459.95     0  02:26           0         4.8       0.208
  YS02001629           JUNCTION      0.00   902.78     0  02:12           0         3.6       0.012
  YS02001633           JUNCTION   1143.35  1255.61     0  02:12         1.9        5.18       0.069
  YS02001641           JUNCTION      0.00  1255.99     0  02:12           0        4.86       0.061
  YS02001644           JUNCTION   1022.94  1625.20     0  02:25        1.65        6.51       0.055
  YS02001647           JUNCTION      0.00  1589.18     0  02:13           0         5.8       0.006
  YS02001649           JUNCTION      0.00  1758.71     0  02:14           0        7.31       0.005
  YS02001652           JUNCTION      0.00  1025.01     0  02:25           0        1.51      -0.054
  YS02001655           JUNCTION      0.15  1024.93     0  02:25     0.00443        1.51      -0.036
  YS02001658           JUNCTION      0.00  1024.82     0  02:25           0        1.51      -0.063
  YS02001661           JUNCTION      0.00  1024.27     0  02:25           0        1.51      -0.014
  YS02001664           JUNCTION   1010.21  1010.21     0  02:25         1.5         1.5      -0.005
  YS02001745           JUNCTION    632.26   632.26     0  02:25       0.909       0.911       0.145
  YS02001748           JUNCTION      0.04   634.77     0  02:25      0.0013       0.913      -0.184
  YS02001751           JUNCTION      0.01   635.39     0  02:25    0.000317       0.916       0.024
  YS02001754           JUNCTION      0.26   636.26     0  02:25     0.00749       0.928      -0.146
  YS02001757           JUNCTION      0.00  2997.69     0  02:24           0        11.1       0.010
  YS02001759           JUNCTION    879.89  1292.79     0  02:25        1.26        2.87      -0.005
  YS02001762           JUNCTION      0.00   673.53     0  02:19           0        1.61       0.012
  YS02001765           JUNCTION      0.00   673.83     0  02:19           0        1.61       0.014
  YS02001767           JUNCTION      0.54   673.54     0  02:19      0.0154        1.61       0.018
  YS02001770           JUNCTION   1241.80  1241.80     0  02:25        1.92        1.96      -0.011
  YS02001774           JUNCTION      0.00   820.49     0  02:25           0       0.389       0.362
  YS02001779           JUNCTION      0.01   821.04     0  02:25    0.000144       0.341      -0.040
  YS02001783           JUNCTION      0.00  1167.66     0  02:23           0        4.38       0.006
  YS02001784           JUNCTION      1.06  1168.85     0  02:23      0.0305        4.41       0.012
  YS02001786           JUNCTION      0.06  1169.84     0  02:23     0.00162        4.41       0.015
  YS02001788           JUNCTION      0.07  1170.24     0  02:23     0.00204        4.42       0.007
  YS02001790           JUNCTION      0.15  1173.90     0  02:22     0.00446        4.42       0.017
  YS02001791           JUNCTION      0.00  1288.25     0  02:20           0        4.42      -0.025
  YS02001793           JUNCTION      0.00  1260.46     0  02:25           0        4.42       0.005
  YS02001882           JUNCTION      0.00    26.87     0  02:12           0      0.0126       5.084
  YS02001884           JUNCTION      0.00    34.79     0  02:11           0      0.0483       5.410
  YS02001887           JUNCTION    939.69   939.96     0  02:25        1.31        1.35       0.338
  YS02001890           JUNCTION      0.00   939.12     0  02:25           0         1.3       0.398
  YS02001895           JUNCTION      0.00   517.52     0  02:24           0        1.17       0.138
  YS02001898           JUNCTION      0.00   518.08     0  02:24           0        1.17       0.030
  YS02001901           JUNCTION      0.00   517.87     0  02:24           0        1.17       0.289
  YS02001904           JUNCTION      0.00   517.98     0  02:24           0        1.17       0.243
  YS02001907           JUNCTION      0.00  2272.05     0  02:25           0        4.04       0.453
  YS02001910           JUNCTION      0.00  1647.20     0  02:25           0        2.86       0.252
  YS02001915           JUNCTION   1101.56  1647.11     0  02:25        1.82        2.89       0.057
  YS02001918           JUNCTION      0.00   550.27     0  02:25           0        1.08       0.016
  YS02001920           JUNCTION      2.87   549.73     0  02:25      0.0827        1.07       0.079
  YS02001923           JUNCTION      0.04   546.44     0  02:25     0.00109       0.976      -0.031
  YS02001926           JUNCTION      0.05   546.02     0  02:25      0.0015       0.964      -0.000
  YS02001929           JUNCTION    537.45   537.45     0  02:26       0.959       0.959      -0.055
  YS02006553           JUNCTION      0.00   802.24     0  02:39           0        2.54       0.470
  YS02006556           JUNCTION      0.00   803.25     0  02:39           0        2.54       0.329
  YS02006558           JUNCTION   1275.11  1275.11     0  02:25        1.92        4.43       0.078
  YS02006561           JUNCTION      0.00  1167.64     0  02:23           0        4.38       0.001
  YS02163301           JUNCTION      0.00   902.07     0  02:12           0         3.6       0.044
  YS02163601           JUNCTION      0.11  1255.71     0  02:12     0.00317        4.86       0.103
  YS02164001           JUNCTION      0.00  1255.57     0  02:12           0        4.86       0.054
  YSB1154              JUNCTION    512.21   512.21     0  02:25       0.792       0.793       0.196
  YSB1171              JUNCTION      0.00  1192.01     0  02:25           0        1.54       0.432
  YSB1174              JUNCTION    441.91   441.91     0  02:25       0.604       0.605       0.225
  YSB6556              JUNCTION      0.00   512.59     0  02:25           0       0.793       0.163
  CC-1                 OUTFALL       0.00   683.00     0  00:00           0        3.64       0.000
  CC-2                 OUTFALL       0.00   683.00     0  00:00           0        2.96       0.000
  JK-1                 OUTFALL       0.00  1000.00     0  00:00           0         1.5       0.000
  JK-2                 OUTFALL       0.00  1000.00     0  00:00           0        1.88       0.000
  WSC                  OUTFALL       0.00  1537.05     0  02:28           0          17       0.000
  CC-storage           STORAGE       0.00  2997.01     0  02:24           0        13.3      -0.200
  JK-storage           STORAGE       0.00  1274.70     0  02:25           0        4.57      -0.341
  XR-storage           STORAGE     200.00   200.00     0  00:00        5.76        6.36       0.001
  
  
  **********************
  Node Surcharge Summary
  **********************
  
  Surcharging occurs when water rises above the top of the highest conduit.
  ---------------------------------------------------------------------
                                               Max. Height   Min. Depth
                                   Hours       Above Crown    Below Rim
  Node                 Type      Surcharged         Meters       Meters
  ---------------------------------------------------------------------
  HS02004478           JUNCTION        0.54          0.665        0.275
  HS02004479           JUNCTION        0.68          0.897        0.153
  HS02004480           JUNCTION        0.73          1.034        0.066
  HS02004770           JUNCTION        0.62          0.720        0.000
  HS02004777           JUNCTION        0.63          0.780        0.000
  HS02004785           JUNCTION        0.57          0.769        0.021
  HS02004788           JUNCTION        0.56          0.720        0.000
  HS02004792           JUNCTION        0.69          0.900        0.000
  HS02004799           JUNCTION        0.84          1.060        0.000
  HS02004802           JUNCTION        0.74          1.095        0.115
  HS02004807           JUNCTION        0.72          1.220        0.000
  HS02004817           JUNCTION        1.33          1.713        0.027
  HS02004824           JUNCTION        0.57          1.310        0.000
  HS02004830           JUNCTION        0.54          1.330        0.000
  HS02004837           JUNCTION        0.50          1.253        0.087
  HS02004842           JUNCTION        0.64          1.520        0.000
  HS02004848           JUNCTION        0.46          1.257        0.113
  HS02004852           JUNCTION        0.48          1.416        0.004
  HS02004856           JUNCTION        0.48          1.268        0.032
  HS02004862           JUNCTION        0.51          1.300        0.000
  HS02004870           JUNCTION        0.53          1.327        0.073
  HS02004876           JUNCTION        0.60          1.413        0.147
  HS02004881           JUNCTION        0.58          1.159        0.291
  HS02004901           JUNCTION        0.62          0.720        0.000
  WS02004401           JUNCTION        1.73          0.966        0.694
  WS02004402           JUNCTION        1.75          0.896        0.844
  WS02004403           JUNCTION        1.76          0.824        1.206
  WS02004404           JUNCTION        1.95          0.822        1.958
  WS02004405           JUNCTION        1.91          0.768        2.032
  WS02004406           JUNCTION        1.87          0.649        1.801
  WS02004409           JUNCTION        1.16          0.425        1.935
  WS02004410           JUNCTION        1.09          0.325        2.215
  WS02004411           JUNCTION        1.01          0.230        2.300
  WS02004412           JUNCTION        0.88          0.123        2.187
  WS02004413           JUNCTION        1.46          0.156        2.044
  WS02006109           JUNCTION        2.85          1.820        0.000
  WS02006110           JUNCTION        2.22          1.519        0.331
  WS02006111           JUNCTION        1.40          1.030        0.840
  WS02006112           JUNCTION        2.53          1.496        0.184
  WS02006113           JUNCTION        1.44          1.095        0.835
  WS02006115           JUNCTION        1.70          1.063        1.187
  WS02006116           JUNCTION        1.71          1.001        1.289
  WS02006228           JUNCTION        2.80          2.200        0.000
  WS02006229           JUNCTION        1.07          1.045        0.025
  WS02006230           JUNCTION        2.06          1.570        0.000
  WS02006231           JUNCTION        2.29          1.485        0.045
  WS02006232           JUNCTION        2.97          1.480        0.000
  WS02006234           JUNCTION        2.66          1.240        0.000
  WS02006235           JUNCTION        2.73          1.290        0.000
  WS02006238           JUNCTION        2.84          1.311        0.119
  WS02006239           JUNCTION        2.75          1.198        0.092
  WS02006240           JUNCTION        2.77          1.054        0.336
  WS02006242           JUNCTION        3.01          0.820        0.000
  WS02006243           JUNCTION        2.81          0.770        0.000
  WS02006245           JUNCTION        2.81          0.759        0.091
  WS02006247           JUNCTION        2.87          0.617        0.143
  WS02006248           JUNCTION        2.79          0.380        0.000
  WS02006249           JUNCTION        2.85          0.390        0.000
  WS02006251           JUNCTION        2.38          1.131        0.049
  WS02006252           JUNCTION        3.57          1.100        0.000
  WS02006253           JUNCTION        2.46          2.096        0.384
  WS02006256           JUNCTION        7.68          2.050        0.000
  WS02006280           JUNCTION        0.86          0.693        0.087
  WS02006284           JUNCTION        0.76          0.668        0.132
  WS02006287           JUNCTION        0.65          0.746        0.144
  YS02001580           JUNCTION        0.68          0.450        0.000
  YS02001583           JUNCTION        0.69          0.500        0.000
  YS02001586           JUNCTION        0.83          0.510        0.000
  YS02001590           JUNCTION        0.92          0.731        0.019
  YS02001593           JUNCTION        0.91          0.680        0.160
  YS02001596           JUNCTION        1.04          0.929        0.141
  YS02001600           JUNCTION        1.20          1.190        0.000
  YS02001601           JUNCTION        1.57          1.440        0.000
  YS02001602           JUNCTION        1.45          1.270        0.000
  YS02001605           JUNCTION        1.39          1.180        0.000
  YS02001607           JUNCTION        0.91          0.680        0.000
  YS02001610           JUNCTION        0.93          0.680        0.000
  YS02001613           JUNCTION        0.90          0.689        0.011
  YS02001616           JUNCTION        0.86          0.610        0.000
  YS02001619           JUNCTION        0.85          0.610        0.000
  YS02001622           JUNCTION        0.85          0.598        0.022
  YS02001625           JUNCTION        1.03          0.780        0.000
  YS02001629           JUNCTION        0.79          0.470        0.000
  YS02001633           JUNCTION        1.06          1.060        0.000
  YS02001641           JUNCTION        1.00          1.099        0.001
  YS02001644           JUNCTION        0.97          0.920        0.000
  YS02001647           JUNCTION        0.77          0.797        0.103
  YS02001649           JUNCTION        0.88          1.004        0.046
  YS02001652           JUNCTION        0.71          0.853        0.277
  YS02001655           JUNCTION        0.54          0.697        0.503
  YS02001658           JUNCTION        0.30          0.455        0.845
  YS02001661           JUNCTION        0.08          0.305        1.085
  YS02001748           JUNCTION        0.24          0.252        0.938
  YS02001751           JUNCTION        0.42          0.514        0.686
  YS02001754           JUNCTION        0.63          0.711        0.439
  YS02001757           JUNCTION        0.95          1.079        0.131
  YS02001759           JUNCTION        0.87          1.060        0.150
  YS02001762           JUNCTION        0.84          1.029        0.121
  YS02001765           JUNCTION        0.81          0.984        0.116
  YS02001767           JUNCTION        0.78          0.957        0.073
  YS02001770           JUNCTION        0.74          0.920        0.000
  YS02001774           JUNCTION        0.83          0.998        0.052
  YS02001779           JUNCTION        0.61          0.680        0.000
  YS02001783           JUNCTION        0.59          0.466        1.134
  YS02001784           JUNCTION        0.56          0.331        1.159
  YS02001786           JUNCTION        0.44          0.097        1.333
  YS02001882           JUNCTION        0.53          0.698        0.132
  YS02001884           JUNCTION        0.54          0.734        0.136
  YS02001887           JUNCTION        0.57          0.846        0.104
  YS02001890           JUNCTION        0.59          0.760        0.000
  YS02001895           JUNCTION        0.51          0.574        0.176
  YS02001898           JUNCTION        0.51          0.548        0.192
  YS02001901           JUNCTION        0.56          0.717        0.153
  YS02001904           JUNCTION        0.55          0.641        0.209
  YS02001907           JUNCTION        0.87          0.950        0.000
  YS02001910           JUNCTION        0.62          0.970        0.130
  YS02001915           JUNCTION        0.52          0.923        0.077
  YS02001918           JUNCTION        0.43          0.810        0.000
  YS02001920           JUNCTION        0.45          0.989        0.151
  YS02001923           JUNCTION        0.13          0.608        0.212
  YS02001926           JUNCTION        0.16          0.679        0.221
  YS02001929           JUNCTION        0.01          0.534        0.246
  YS02006553           JUNCTION        0.89          1.032        0.158
  YS02006556           JUNCTION        0.73          1.028        0.322
  YS02006558           JUNCTION        0.71          0.983        0.417
  YS02006561           JUNCTION        0.39          0.146        1.004
  YS02163301           JUNCTION        1.04          0.997        0.033
  YS02163601           JUNCTION        1.10          1.080        0.000
  YS02164001           JUNCTION        1.00          1.100        0.000
  YSB1154              JUNCTION        0.98          1.359        0.041
  YSB1171              JUNCTION        0.99          1.100        0.000
  YSB1174              JUNCTION        0.89          1.165        0.085
  YSB6556              JUNCTION        0.81          1.100        0.000
  
  
  *********************
  Node Flooding Summary
  *********************
  
  Flooding refers to all water that overflows a node, whether it ponds or not.
  --------------------------------------------------------------------------
                                                             Total   Maximum
                                 Maximum   Time of Max       Flood    Ponded
                        Hours       Rate    Occurrence      Volume     Depth
  Node                 Flooded       LPS   days hr:min    10^6 ltr    Meters
  --------------------------------------------------------------------------
  HS02004770              0.44   1557.53      0  02:25       0.938     0.000
  HS02004777              0.01     25.43      0  02:11       0.000     0.000
  HS02004788              0.01    100.87      0  02:11       0.000     0.000
  HS02004792              0.41   2168.90      0  02:25       1.542     0.000
  HS02004799              0.23    284.47      0  02:25       0.131     0.000
  HS02004807              0.14    520.78      0  02:25       0.172     0.000
  HS02004824              0.08    132.53      0  02:26       0.026     0.000
  HS02004830              0.01     83.08      0  02:12       0.000     0.000
  HS02004842              0.08    127.09      0  02:25       0.022     0.000
  HS02004862              0.07    152.57      0  02:25       0.021     0.000
  HS02004901              0.51    739.16      0  02:25       0.829     0.000
  WS02006109              0.48    337.43      0  02:25       0.312     0.000
  WS02006228              0.01      0.09      0  02:29       0.000     0.000
  WS02006230              0.77    573.38      0  02:22       1.078     0.000
  WS02006232              0.18      2.76      0  02:35       0.000     0.000
  WS02006234              0.85    128.48      0  02:35       0.286     0.000
  WS02006235              0.01      7.14      0  02:59       0.000     0.000
  WS02006242              1.03    137.50      0  02:14       0.437     0.000
  WS02006243              0.01     24.11      0  01:35       0.000     0.000
  WS02006248              1.28    339.41      0  02:02       1.342     0.000
  WS02006249              2.12   1317.93      0  02:25       4.494     0.000
  WS02006252              0.53    728.49      0  02:25       0.696     0.000
  WS02006256              1.06    298.34      0  02:25       0.684     0.000
  YS02001580              0.01     42.97      0  02:09       0.000     0.000
  YS02001583              0.01     35.77      0  02:09       0.000     0.000
  YS02001586              0.53    557.65      0  02:26       0.456     0.000
  YS02001600              0.01      0.24      0  02:35       0.000     0.000
  YS02001601              0.76   1437.56      0  02:25       1.581     0.000
  YS02001602              0.64     62.04      0  02:23       0.132     0.000
  YS02001605              0.01      0.63      0  02:35       0.000     0.000
  YS02001607              0.01      0.63      0  02:35       0.000     0.000
  YS02001610              0.57    875.00      0  02:26       0.828     0.000
  YS02001616              0.01     11.06      0  02:35       0.000     0.000
  YS02001619              0.01     16.28      0  02:35       0.000     0.000
  YS02001625              0.55   1459.87      0  02:26       1.507     0.000
  YS02001629              0.13    114.78      0  02:25       0.022     0.000
  YS02001633              0.01      9.03      0  02:35       0.000     0.000
  YS02001644              0.26   1608.17      0  02:25       0.698     0.000
  YS02001770              0.02     18.73      0  02:25       0.001     0.000
  YS02001779              0.22    820.98      0  02:25       0.320     0.000
  YS02001890              0.20    422.04      0  02:25       0.131     0.000
  YS02001907              0.38   2271.80      0  02:25       1.511     0.000
  YS02001918              0.01     20.94      0  02:16       0.000     0.000
  YS02163601              0.01     25.78      0  02:35       0.000     0.000
  YS02164001              0.01     31.75      0  02:35       0.000     0.000
  YSB1171                 0.34   1190.45      0  02:25       0.748     0.000
  YSB6556                 0.01      0.43      0  02:23       0.000     0.000
  
  
  **********************
  Storage Volume Summary
  **********************
  
  --------------------------------------------------------------------------------------------------
                         Average     Avg  Evap Exfil       Maximum     Max    Time of Max    Maximum
                          Volume    Pcnt  Pcnt  Pcnt        Volume    Pcnt     Occurrence    Outflow
  Storage Unit           1000 m3    Full  Loss  Loss       1000 m3    Full    days hr:min        LPS
  --------------------------------------------------------------------------------------------------
  CC-storage               2.398      37     0     0         5.124      80       0  02:47    1783.53
  JK-storage               0.069      24     0     0         0.209      72       0  02:15    2300.00
  XR-storage               0.953      66     0     0         1.111      77       0  08:00     380.00
  
  
  ***********************
  Outfall Loading Summary
  ***********************
  
  -----------------------------------------------------------
                         Flow       Avg       Max       Total
                         Freq      Flow      Flow      Volume
  Outfall Node           Pcnt       LPS       LPS    10^6 ltr
  -----------------------------------------------------------
  CC-1                  21.08    683.00    683.00       3.643
  CC-2                  16.54    683.00    683.00       2.961
  JK-1                   5.50   1000.00   1000.00       1.500
  JK-2                   7.48   1000.00   1000.00       1.885
  WSC                   99.96    665.63   1537.05      16.993
  -----------------------------------------------------------
  System                30.11   4031.63   4899.30      26.981
  
  
  ********************
  Link Flow Summary
  ********************
  
  -----------------------------------------------------------------------------
                                 Maximum  Time of Max   Maximum    Max/    Max/
                                  |Flow|   Occurrence   |Veloc|    Full    Full
  Link                 Type          LPS  days hr:min     m/sec    Flow   Depth
  -----------------------------------------------------------------------------
  1                    CONDUIT   1537.05     0  02:28      3.72    0.54    0.52
  HS02004478WS02006287 CONDUIT   2304.43     0  02:22      2.56    0.65    1.00
  HS02004479HS02004480 CONDUIT    382.33     0  02:15      0.55    0.37    1.00
  HS02004480HS02004478 CONDUIT   2052.46     0  02:14      2.93    8.64    1.00
  HS02004770HS02004777 CONDUIT    691.43     0  02:11      0.99    1.26    1.00
  HS02004777HS02004785 CONDUIT    697.71     0  02:11      1.06    0.86    1.00
  HS02004785HS02004788 CONDUIT    636.94     0  02:12      1.35    4.80    1.00
  HS02004788HS02004792 CONDUIT    879.05     0  02:25      1.46    0.58    1.00
  HS02004792HS02004799 CONDUIT   1571.65     0  02:12      2.25    0.96    1.00
  HS02004799HS02004480 CONDUIT   1713.12     0  02:12      2.45    2.16    1.00
  HS02004802HS02004478 CONDUIT   1233.87     0  02:29      1.76    1.09    1.00
  HS02004807HS02004802 CONDUIT   1233.18     0  02:28      1.76    2.35    1.00
  HS02004817HS02004807 CONDUIT   1197.00     0  02:26      1.71    0.71    1.00
  HS02004817HS02004824 CONDUIT   1196.41     0  02:27      1.71    0.54    1.00
  HS02004824HS02004830 CONDUIT    576.58     0  02:26      0.82    0.75    1.00
  HS02004830HS02004837 CONDUIT    598.89     0  02:12      0.94    0.60    1.00
  HS02004837HS02004842 CONDUIT    735.42     0  02:14      1.05    0.44    1.00
  HS02004842HS02004848 CONDUIT    735.99     0  02:14      1.10    0.43    1.00
  HS02004848HS02004852 CONDUIT    952.80     0  02:14      1.50    1.07    1.00
  HS02004852HS02004856 CONDUIT    920.75     0  02:14      1.41    1.05    1.00
  HS02004856HS02004862 CONDUIT    971.46     0  02:13      1.62    0.97    1.00
  HS02004862HS02004870 CONDUIT   1017.40     0  02:29      1.67    1.10    1.00
  HS02004870HS02004876 CONDUIT   1249.20     0  02:27      1.78    0.83    1.00
  HS02004876HS02004881 CONDUIT   1511.45     0  02:27      2.17   16.08    1.00
  HS02004881HS02006253 CONDUIT   1664.01     0  02:24      2.38    0.33    1.00
  HS02004901HS02004770 CONDUIT    265.79     0  02:37      0.38    1.00    1.00
  WS02001211WS02001212 CONDUIT    215.27     0  03:05      0.54    0.16    0.70
  WS02001212WS02001213 CONDUIT    220.19     0  03:04      1.04    0.34    0.57
  WS02001213WS02003059 CONDUIT    225.68     0  03:04      0.47    0.37    0.90
  WS02003059WS02003060 CONDUIT    232.51     0  03:03      0.66    0.15    0.82
  WS02003060WS02003069 CONDUIT   1534.35     0  02:26      2.09    0.60    0.62
  WS02003066WSF200     CONDUIT   1336.73     0  02:25      3.26    0.23    0.39
  WS02003067WS02003066 CONDUIT   1336.53     0  02:25      2.03    0.43    0.56
  WS02003069WS02003072 CONDUIT   1534.44     0  02:27      1.91    0.74    0.67
  WS02003072WS02003073 CONDUIT   1534.70     0  02:27      2.07    3.31    0.62
  WS02004138WS02004139 CONDUIT    190.00     0  00:32      2.16    0.04    0.42
  WS02004139WS02001211 CONDUIT    198.95     0  03:05      0.55    0.25    0.61
  WS02004401WS02004402 CONDUIT   1337.11     0  02:25      1.70    1.61    1.00
  WS02004402WS02004403 CONDUIT   1337.63     0  02:25      1.70    1.92    1.00
  WS02004403WS02004404 CONDUIT   1337.02     0  02:25      1.70    0.97    1.00
  WS02004404WS02004405 CONDUIT   1338.78     0  02:25      1.70   13.12    1.00
  WS02004405WS02004406 CONDUIT   1338.24     0  02:25      1.70    2.64    1.00
  WS02004406WS02004407 CONDUIT   1338.02     0  02:25      1.71    0.60    1.00
  WS02004407WS02004409 CONDUIT   1335.85     0  02:25      1.79    0.47    1.00
  WS02004409WS02004410 CONDUIT   1335.83     0  02:25      1.70    1.73    1.00
  WS02004410WS02004411 CONDUIT   1335.75     0  02:25      1.70    1.82    1.00
  WS02004411WS02004412 CONDUIT   1335.65     0  02:25      1.70    1.90    1.00
  WS02004412WS02004413 CONDUIT   1335.74     0  02:25      1.70    0.89    1.00
  WS02004413WS02003067 CONDUIT   1335.63     0  02:25      2.06    0.57    0.77
  WS02006109WS02006110 CONDUIT   1126.14     0  02:41      2.24    2.17    1.00
  WS02006110WS02006113 CONDUIT   1126.22     0  02:41      2.24    1.02    1.00
  WS02006111WS02006112 CONDUIT   1126.54     0  02:41      2.24    0.54    1.00
  WS02006112WS02006115 CONDUIT   1337.34     0  02:25      1.70    0.79    1.00
  WS02006113WS02006111 CONDUIT   1126.13     0  02:41      2.73    1.35    1.00
  WS02006115WS02006116 CONDUIT   1337.12     0  02:25      1.70    1.72    1.00
  WS02006116WS02004401 CONDUIT   1336.75     0  02:25      1.70    1.84    1.00
  WS02006228WS02006109 CONDUIT   1287.74     0  02:23      2.56    5.63    1.00
  WS02006229WS02006228 CONDUIT   1288.04     0  02:22      2.56    4.27    1.00
  WS02006230WS02006229 CONDUIT   1015.98     0  02:22      2.64   22.61    1.00
  WS02006231WS02006230 CONDUIT    562.97     0  04:05      1.48    8.54    1.00
  WS02006232WS02006231 CONDUIT    562.09     0  04:05      1.46    1.18    1.00
  WS02006234WS02006232 CONDUIT    561.32     0  04:05      1.46    1.14    1.00
  WS02006235WS02006234 CONDUIT    557.55     0  04:05      1.45    5.88    1.00
  WS02006238WS02006235 CONDUIT    432.37     0  04:10      1.45    0.97    1.00
  WS02006239WS02006238 CONDUIT    431.50     0  04:11      1.12    1.38    1.00
  WS02006240WS02006239 CONDUIT    430.30     0  04:11      1.26    1.35    1.00
  WS02006242WS02006240 CONDUIT    432.11     0  04:10      1.14    1.72    1.00
  WS02006243WS02006242 CONDUIT    432.40     0  04:10      1.34    0.92    1.00
  WS02006245WS02006243 CONDUIT    445.67     0  01:34      1.45    1.32    1.00
  WS02006247WS02006245 CONDUIT    467.72     0  01:32      1.48    3.71    1.00
  WS02006248WS02006247 CONDUIT    469.13     0  01:33      1.40    1.02    1.00
  WS02006249WS02006248 CONDUIT    487.48     0  01:32      1.43    2.67    1.00
  WS02006251WS02006249 CONDUIT   1379.07     0  02:25      3.58    3.98    1.00
  WS02006252WS02006251 CONDUIT    410.41     0  02:04     25.75    1.51    1.00
  WS02006253WS02006251 CONDUIT   1706.77     0  02:25      4.43    5.12    1.00
  WS02006256WS02006235 CONDUIT    288.93     0  00:00      4.23    3.06    1.00
  WS02006280WS02006229 CONDUIT   2304.82     0  02:21      3.89    0.49    1.00
  WS02006284WS02006280 CONDUIT   2304.04     0  02:23      2.97    0.96    1.00
  WS02006287WS02006284 CONDUIT   2303.67     0  02:23      2.93    1.07    1.00
  WSF200WS02003060     CONDUIT   1336.75     0  02:25      2.31    0.30    0.51
  YS02001580YS02001583 CONDUIT     71.79     0  02:09      0.49    0.28    1.00
  YS02001583YS02001586 CONDUIT    105.93     0  02:08      0.46    0.16    1.00
  YS02001586YS02001590 CONDUIT    318.32     0  02:35      1.24    0.56    1.00
  YS02001590YS02001593 CONDUIT    318.08     0  02:35      1.12    2.00    1.00
  YS02001593YS02001596 CONDUIT    318.00     0  02:35      1.73    0.50    1.00
  YS02001596YS02001600 CONDUIT    318.06     0  02:44      1.27    0.62    1.00
  YS02001600YS02001601 CONDUIT    318.36     0  02:35      1.13    0.55    1.00
  YS02001601YS02001602 CONDUIT    492.22     0  02:08      1.74    1.78    1.00
  YS02001602YS02001605 CONDUIT    493.06     0  02:08      1.74   10.43    1.00
  YS02001605YS02001607 CONDUIT    493.42     0  02:08      1.75    2.71    1.00
  YS02001607YS02001610 CONDUIT    491.00     0  02:08      0.63    0.47    1.00
  YS02001610YS02001613 CONDUIT    538.92     0  02:26      0.69    0.62    1.00
  YS02001613YS02001616 CONDUIT    539.07     0  02:26      0.69    0.46    1.00
  YS02001616YS02001619 CONDUIT    539.09     0  02:26      0.69    0.94    1.00
  YS02001619YS02001622 CONDUIT   1023.33     0  02:25      1.30    1.51    1.00
  YS02001622YS02001625 CONDUIT   1024.45     0  02:25      1.30    0.55    1.00
  YS02001625YS02001629 CONDUIT    902.78     0  02:12      1.15    0.43    1.00
  YS02001629YS02163301 CONDUIT    902.07     0  02:12      1.15    1.11    1.00
  YS02001633YS02163601 CONDUIT   1255.60     0  02:12      1.60    1.32    1.00
  YS02001641YS02001644 CONDUIT   1255.72     0  02:12      1.60    4.06    1.00
  YS02001644YS02001647 CONDUIT   1589.18     0  02:13      2.07    0.93    1.00
  YS02001647YS02001649 CONDUIT   1589.13     0  02:13      2.23    0.84    1.00
  YS02001649YS02001757 CONDUIT   1760.95     0  02:14      2.28    1.07    1.00
  YS02001652YS02001649 CONDUIT   1025.40     0  02:25      1.31    0.51    1.00
  YS02001655YS02001652 CONDUIT   1025.01     0  02:25      1.31    0.50    1.00
  YS02001658YS02001655 CONDUIT   1024.77     0  02:25      1.80    0.43    1.00
  YS02001661YS02001658 CONDUIT   1024.82     0  02:25      2.12    0.40    1.00
  YS02001664YS02001661 CONDUIT   1024.27     0  02:25      2.02    0.32    0.84
  YS02001745YS02001748 CONDUIT    634.72     0  02:25      1.96    0.24    0.96
  YS02001748YS02001751 CONDUIT    635.38     0  02:25      1.56    0.32    1.00
  YS02001751YS02001754 CONDUIT    636.00     0  02:25      1.37    0.31    1.00
  YS02001754YS02001757 CONDUIT    636.73     0  02:25      0.81    0.26    1.00
  YS02001757CaochengTiaoxuchi CONDUIT   2997.01     0  02:24      3.82    1.30    1.00
  YS02001759YS02001757 CONDUIT   1292.68     0  02:25      1.65    0.92    1.00
  YS02001762YS02001759 CONDUIT    674.67     0  02:19      0.86    0.78    1.00
  YS02001765YS02001762 CONDUIT    673.53     0  02:19      0.86    0.63    1.00
  YS02001767YS02001765 CONDUIT    673.83     0  02:19      0.86    0.85    1.00
  YS02001770YS02001767 CONDUIT    673.01     0  02:19      0.86    2.67    1.00
  YS02001774YS02001770 CONDUIT    820.49     0  02:25      1.04    0.52    1.00
  YS02001779YS02001774 CONDUIT    821.03     0  02:25      1.05    0.41    1.00
  YS02001783YS02001784 CONDUIT   1167.79     0  02:23      2.32    1.61    1.00
  YS02001784YS02001785 CONDUIT   1169.79     0  02:23      2.33    2.72    1.00
  YS02001786YS02001788 CONDUIT   1170.17     0  02:23      2.49    2.25    0.89
  YS02001788YS02001790 CONDUIT   1173.75     0  02:22      2.71    0.87    0.84
  YS02001790YS02001791 CONDUIT   1288.25     0  02:20      3.42    1.40    0.70
  YS02001791YS02001793 CONDUIT   1260.46     0  02:25      6.78    0.54    0.44
  YS02001793JiankangQianchi CONDUIT   1274.70     0  02:25      2.51    0.10    0.64
  YS02001882YS02001884 CONDUIT     26.87     0  02:12      0.14    0.03    1.00
  YS02001884YS02001887 CONDUIT     37.14     0  02:52      0.10    0.05    1.00
  YS02001887YS02001890 CONDUIT    939.12     0  02:25      1.20    1.61    1.00
  YS02001890YS02001895 CONDUIT    517.52     0  02:24      0.66    0.24    1.00
  YS02001895YS02001898 CONDUIT    518.08     0  02:24      0.66    0.90    1.00
  YS02001898YS02001901 CONDUIT    517.87     0  02:24      0.66    0.33    1.00
  YS02001901YS02001904 CONDUIT    517.98     0  02:24      0.66    0.80    1.00
  YS02001904YS02001907 CONDUIT    517.76     0  02:24      0.66    0.18    1.00
  YS02001907YS02006553 CONDUIT    802.24     0  02:39      0.89    0.94    1.00
  YS02001910YS02001907 CONDUIT   1647.17     0  02:25      2.10    0.93    1.00
  YS02001915YS02001910 CONDUIT   1647.20     0  02:25      2.10    0.82    1.00
  YS02001918YS02001915 CONDUIT    550.44     0  02:25      0.70    0.30    1.00
  YS02001920YS02001918 CONDUIT    550.27     0  02:25      0.70    0.53    1.00
  YS02001923YS02001920 CONDUIT    546.86     0  02:25      0.70    0.25    1.00
  YS02001926YS02001923 CONDUIT    546.40     0  02:25      0.94    0.78    1.00
  YS02001929YS02001926 CONDUIT    545.97     0  02:25      1.07    0.26    1.00
  YS02006553YS02006556 CONDUIT    803.25     0  02:39      1.02    0.69    1.00
  YS02006556YS02006558 CONDUIT    804.95     0  02:39      1.02    0.64    1.00
  YS02006558YS02006561 CONDUIT   1167.64     0  02:23      4.13    2.58    1.00
  YS02006561YS02001783 CONDUIT   1167.66     0  02:23      2.32    0.60    1.00
  YS02163301YS02001633 CONDUIT    901.12     0  02:12      1.15    0.85    1.00
  YS02163601YS02164001 CONDUIT   1255.57     0  02:12      1.60    1.11    1.00
  YS02164001YS02001641 CONDUIT   1255.99     0  02:12      1.60    1.71    1.00
  YSB1154YSB6556       CONDUIT    512.59     0  02:25      1.33    0.92    1.00
  YSB1171HS02004479    CONDUIT    383.22     0  02:15      0.76    0.26    1.00
  YSB1174YSB1171       CONDUIT    442.12     0  02:25      1.15    0.68    1.00
  YSB6556YSB1171       CONDUIT    513.29     0  02:25      1.33    0.53    1.00
  CC-R1                PUMP       683.00     0  00:00              1.00
  CC-R2                PUMP       683.00     0  00:00              1.00
  CC-S1                PUMP       200.00     0  00:00              1.00
  CC-S2                PUMP       200.00     0  00:00              1.00
  JK-R1                PUMP      1000.00     0  00:00              1.00
  JK-R2                PUMP      1000.00     0  00:00              1.00
  JK-S                 PUMP       300.00     0  00:00              1.00
  XR-1                 PUMP        95.00     0  00:00              1.00
  XR-2                 PUMP        95.00     0  00:00              1.00
  XR-3                 PUMP        95.00     0  00:00              1.00
  XR-4                 PUMP        95.00     0  00:00              1.00
  
  
  ***************************
  Flow Classification Summary
  ***************************
  
  -------------------------------------------------------------------------------------
                      Adjusted    ---------- Fraction of Time in Flow Class ---------- 
                       /Actual         Up    Down  Sub   Sup   Up    Down  Norm  Inlet 
  Conduit               Length    Dry  Dry   Dry   Crit  Crit  Crit  Crit  Ltd   Ctrl  
  -------------------------------------------------------------------------------------
  1                       1.00   0.00  0.00  0.00  0.00  1.00  0.00  0.00  0.45  0.00
  HS02004478WS02006287    1.00   0.11  0.00  0.00  0.67  0.23  0.00  0.00  0.58  0.00
  HS02004479HS02004480    1.00   0.04  0.00  0.00  0.96  0.00  0.00  0.00  0.11  0.00
  HS02004480HS02004478    1.00   0.10  0.00  0.00  0.62  0.00  0.00  0.28  0.00  0.00
  HS02004770HS02004777    1.00   0.00  0.10  0.00  0.90  0.00  0.00  0.00  0.02  0.00
  HS02004777HS02004785    1.00   0.00  0.00  0.00  1.00  0.00  0.00  0.00  0.11  0.00
  HS02004785HS02004788    1.00   0.00  0.00  0.00  1.00  0.00  0.00  0.00  0.00  0.00
  HS02004788HS02004792    1.00   0.00  0.00  0.00  1.00  0.00  0.00  0.00  0.89  0.00
  HS02004792HS02004799    1.00   0.00  0.00  0.00  0.99  0.01  0.00  0.00  0.84  0.00
  HS02004799HS02004480    1.00   0.00  0.04  0.00  0.89  0.00  0.06  0.00  0.00  0.00
  HS02004802HS02004478    1.00   0.10  0.00  0.00  0.90  0.00  0.00  0.00  0.02  0.00
  HS02004807HS02004802    1.00   0.10  0.00  0.00  0.90  0.00  0.00  0.01  0.00  0.00
  HS02004817HS02004807    1.00   0.00  0.10  0.00  0.90  0.00  0.00  0.00  0.01  0.00
  HS02004817HS02004824    1.00   0.00  0.00  0.00  1.00  0.00  0.00  0.00  0.80  0.00
  HS02004824HS02004830    1.00   0.00  0.00  0.00  1.00  0.00  0.00  0.00  0.01  0.00
  HS02004830HS02004837    1.00   0.00  0.00  0.00  1.00  0.00  0.00  0.00  0.87  0.00
  HS02004837HS02004842    1.00   0.00  0.00  0.00  1.00  0.00  0.00  0.00  0.11  0.00
  HS02004842HS02004848    1.00   0.00  0.10  0.00  0.90  0.00  0.00  0.00  0.54  0.00
  HS02004848HS02004852    1.00   0.10  0.00  0.00  0.90  0.00  0.00  0.00  0.69  0.00
  HS02004852HS02004856    1.00   0.10  0.00  0.00  0.90  0.00  0.00  0.00  0.65  0.00
  HS02004856HS02004862    1.00   0.00  0.11  0.00  0.89  0.00  0.00  0.00  0.73  0.00
  HS02004862HS02004870    1.00   0.00  0.00  0.00  1.00  0.00  0.00  0.00  0.03  0.00
  HS02004870HS02004876    1.00   0.00  0.00  0.00  0.98  0.02  0.00  0.00  0.85  0.00
  HS02004876HS02004881    1.00   0.01  0.00  0.00  0.80  0.19  0.00  0.00  0.00  0.00
  HS02004881HS02006253    1.00   0.01  0.05  0.00  0.72  0.00  0.00  0.22  0.41  0.00
  HS02004901HS02004770    1.00   0.10  0.00  0.00  0.90  0.00  0.00  0.00  0.00  0.00
  WS02001211WS02001212    1.00   0.00  0.02  0.00  0.98  0.00  0.00  0.00  0.00  0.00
  WS02001212WS02001213    1.00   0.02  0.00  0.00  0.71  0.00  0.27  0.00  0.00  0.00
  WS02001213WS02003059    1.00   0.00  0.00  0.00  1.00  0.00  0.00  0.00  0.00  0.00
  WS02003059WS02003060    1.00   0.00  0.00  0.00  1.00  0.00  0.00  0.00  0.03  0.00
  WS02003060WS02003069    1.00   0.00  0.00  0.00  0.98  0.02  0.00  0.00  0.38  0.00
  WS02003066WSF200        1.00   0.06  0.00  0.00  0.00  0.94  0.00  0.00  0.61  0.00
  WS02003067WS02003066    1.00   0.06  0.00  0.00  0.94  0.00  0.00  0.00  0.00  0.00
  WS02003069WS02003072    1.00   0.00  0.00  0.00  1.00  0.00  0.00  0.00  0.42  0.00
  WS02003072WS02003073    1.00   0.00  0.00  0.00  0.00  0.00  0.00  1.00  0.00  0.00
  WS02004138WS02004139    1.00   0.00  0.00  0.00  0.97  0.01  0.00  0.01  0.98  0.00
  WS02004139WS02001211    1.00   0.00  0.00  0.00  1.00  0.00  0.00  0.00  0.00  0.00
  WS02004401WS02004402    1.00   0.02  0.00  0.00  0.98  0.00  0.00  0.00  0.00  0.00
  WS02004402WS02004403    1.00   0.02  0.00  0.00  0.98  0.00  0.00  0.00  0.00  0.00
  WS02004403WS02004404    1.00   0.00  0.02  0.00  0.97  0.00  0.00  0.00  0.00  0.00
  WS02004404WS02004405    1.00   0.00  0.00  0.00  1.00  0.00  0.00  0.00  0.01  0.00
  WS02004405WS02004406    1.00   0.00  0.00  0.00  1.00  0.00  0.00  0.00  0.00  0.00
  WS02004406WS02004407    1.00   0.00  0.04  0.00  0.96  0.00  0.00  0.00  0.00  0.00
  WS02004407WS02004409    1.00   0.04  0.00  0.00  0.94  0.01  0.00  0.00  0.81  0.00
  WS02004409WS02004410    1.00   0.04  0.00  0.00  0.96  0.00  0.00  0.00  0.00  0.00
  WS02004410WS02004411    1.00   0.04  0.00  0.00  0.96  0.00  0.00  0.00  0.00  0.00
  WS02004411WS02004412    1.00   0.04  0.00  0.00  0.96  0.00  0.00  0.00  0.00  0.00
  WS02004412WS02004413    1.00   0.04  0.00  0.00  0.95  0.00  0.00  0.00  0.00  0.00
  WS02004413WS02003067    1.00   0.05  0.01  0.00  0.00  0.00  0.94  0.00  0.00  0.00
  WS02006109WS02006110    1.00   0.00  0.01  0.00  0.99  0.00  0.01  0.00  0.00  0.00
  WS02006110WS02006113    1.00   0.01  0.01  0.00  0.99  0.00  0.00  0.00  0.00  0.00
  WS02006111WS02006112    1.00   0.01  0.00  0.00  0.98  0.00  0.00  0.00  0.74  0.00
  WS02006112WS02006115    1.00   0.01  0.00  0.00  0.98  0.00  0.01  0.00  0.00  0.00
  WS02006113WS02006111    1.00   0.01  0.00  0.00  0.24  0.75  0.00  0.00  0.12  0.00
  WS02006115WS02006116    1.00   0.02  0.00  0.00  0.97  0.00  0.00  0.01  0.00  0.00
  WS02006116WS02004401    1.00   0.02  0.00  0.00  0.98  0.00  0.00  0.00  0.00  0.00
  WS02006228WS02006109    1.00   0.00  0.00  0.00  1.00  0.00  0.00  0.00  0.00  0.00
  WS02006229WS02006228    1.00   0.00  0.00  0.00  0.99  0.00  0.00  0.00  0.00  0.00
  WS02006230WS02006229    1.00   0.00  0.00  0.00  0.99  0.00  0.00  0.01  0.02  0.00
  WS02006231WS02006230    1.00   0.00  0.00  0.00  0.66  0.00  0.34  0.00  0.00  0.00
  WS02006232WS02006231    1.00   0.00  0.00  0.00  1.00  0.00  0.00  0.00  0.00  0.00
  WS02006234WS02006232    1.00   0.00  0.00  0.00  1.00  0.00  0.00  0.00  0.02  0.00
  WS02006235WS02006234    1.00   0.00  0.00  0.00  0.97  0.00  0.03  0.00  0.00  0.00
  WS02006238WS02006235    1.00   0.00  0.00  0.00  1.00  0.00  0.00  0.00  0.00  0.00
  WS02006239WS02006238    1.00   0.00  0.00  0.00  1.00  0.00  0.00  0.00  0.06  0.00
  WS02006240WS02006239    1.00   0.00  0.00  0.00  0.87  0.00  0.00  0.12  0.01  0.00
  WS02006242WS02006240    1.00   0.00  0.00  0.00  0.99  0.00  0.00  0.00  0.00  0.00
  WS02006243WS02006242    1.00   0.00  0.00  0.00  0.99  0.00  0.00  0.00  0.41  0.00
  WS02006245WS02006243    1.00   0.00  0.00  0.00  0.94  0.00  0.00  0.06  0.00  0.00
  WS02006247WS02006245    1.00   0.00  0.00  0.00  0.99  0.00  0.00  0.01  0.00  0.00
  WS02006248WS02006247    1.00   0.00  0.00  0.00  1.00  0.00  0.00  0.00  0.38  0.00
  WS02006249WS02006248    1.00   0.00  0.00  0.00  0.81  0.00  0.19  0.00  0.00  0.00
  WS02006251WS02006249    1.00   0.00  0.00  0.00  1.00  0.00  0.00  0.00  0.37  0.00
  WS02006252WS02006251    1.00   0.00  0.14  0.00  0.35  0.00  0.51  0.00  0.00  0.00
  WS02006253WS02006251    1.00   0.00  0.00  0.00  1.00  0.00  0.00  0.00  0.01  0.00
  WS02006256WS02006235    1.00   0.00  0.00  0.00  0.99  0.01  0.00  0.00  0.00  0.00
  WS02006280WS02006229    1.00   0.10  0.00  0.00  0.18  0.07  0.00  0.65  0.02  0.00
  WS02006284WS02006280    1.00   0.10  0.00  0.00  0.13  0.02  0.00  0.75  0.00  0.00
  WS02006287WS02006284    1.00   0.09  0.02  0.00  0.57  0.32  0.00  0.00  0.63  0.00
  WSF200WS02003060        1.00   0.00  0.06  0.00  0.44  0.50  0.00  0.00  0.41  0.00
  YS02001580YS02001583    1.00   0.23  0.53  0.00  0.23  0.00  0.00  0.00  0.62  0.00
  YS02001583YS02001586    1.00   0.22  0.49  0.00  0.28  0.00  0.00  0.00  0.62  0.00
  YS02001586YS02001590    1.00   0.10  0.00  0.00  0.58  0.06  0.00  0.26  0.38  0.00
  YS02001590YS02001593    1.00   0.10  0.00  0.00  0.15  0.00  0.75  0.00  0.00  0.00
  YS02001593YS02001596    1.00   0.10  0.00  0.00  0.17  0.01  0.00  0.72  0.02  0.00
  YS02001596YS02001600    1.00   0.10  0.00  0.00  0.26  0.02  0.00  0.63  0.05  0.00
  YS02001600YS02001601    1.00   0.10  0.00  0.00  0.90  0.00  0.00  0.00  0.58  0.00
  YS02001601YS02001602    1.00   0.10  0.00  0.00  0.90  0.00  0.00  0.00  0.00  0.00
  YS02001602YS02001605    1.00   0.10  0.00  0.00  0.90  0.00  0.00  0.00  0.00  0.00
  YS02001605YS02001607    1.00   0.10  0.00  0.00  0.90  0.00  0.00  0.00  0.00  0.00
  YS02001607YS02001610    1.00   0.10  0.00  0.00  0.90  0.00  0.00  0.00  0.01  0.00
  YS02001610YS02001613    1.00   0.10  0.00  0.00  0.90  0.00  0.00  0.00  0.00  0.00
  YS02001613YS02001616    1.00   0.10  0.00  0.00  0.90  0.00  0.00  0.00  0.00  0.00
  YS02001616YS02001619    1.00   0.10  0.00  0.00  0.90  0.00  0.00  0.00  0.00  0.00
  YS02001619YS02001622    1.00   0.10  0.00  0.00  0.90  0.00  0.00  0.00  0.27  0.00
  YS02001622YS02001625    1.00   0.10  0.00  0.00  0.90  0.00  0.00  0.00  0.04  0.00
  YS02001625YS02001629    1.00   0.10  0.02  0.00  0.21  0.00  0.68  0.00  0.00  0.00
  YS02001629YS02163301    1.00   0.11  0.00  0.00  0.89  0.00  0.00  0.00  0.00  0.00
  YS02001633YS02163601    1.00   0.00  0.00  0.00  1.00  0.00  0.00  0.00  0.15  0.00
  YS02001641YS02001644    1.00   0.00  0.00  0.00  1.00  0.00  0.00  0.00  0.00  0.00
  YS02001644YS02001647    1.00   0.00  0.11  0.00  0.89  0.00  0.00  0.00  0.00  0.00
  YS02001647YS02001649    1.00   0.00  0.11  0.00  0.44  0.45  0.00  0.00  0.54  0.00
  YS02001649YS02001757    1.00   0.00  0.00  0.00  0.60  0.40  0.00  0.00  0.39  0.00
  YS02001652YS02001649    1.00   0.00  0.00  0.00  0.98  0.02  0.00  0.00  0.72  0.00
  YS02001655YS02001652    1.00   0.00  0.00  0.00  0.25  0.01  0.00  0.74  0.06  0.00
  YS02001658YS02001655    1.00   0.00  0.10  0.00  0.69  0.21  0.00  0.00  0.67  0.00
  YS02001661YS02001658    1.00   0.10  0.00  0.00  0.45  0.45  0.00  0.00  0.68  0.00
  YS02001664YS02001661    1.00   0.10  0.00  0.00  0.79  0.12  0.00  0.00  0.85  0.00
  YS02001745YS02001748    1.00   0.00  0.00  0.00  0.13  0.00  0.00  0.87  0.04  0.00
  YS02001748YS02001751    1.00   0.00  0.00  0.00  0.82  0.18  0.00  0.00  0.72  0.00
  YS02001751YS02001754    1.00   0.00  0.00  0.00  0.21  0.01  0.00  0.78  0.03  0.00
  YS02001754YS02001757    1.00   0.00  0.00  0.00  1.00  0.00  0.00  0.00  0.80  0.00
  YS02001757CaochengTiaoxuchi    1.00   0.00  0.00  0.00  1.00  0.00  0.00  0.00  0.68  0.00
  YS02001759YS02001757    1.00   0.00  0.00  0.00  1.00  0.00  0.00  0.00  0.53  0.00
  YS02001762YS02001759    1.00   0.00  0.00  0.00  1.00  0.00  0.00  0.00  0.04  0.00
  YS02001765YS02001762    1.00   0.00  0.00  0.00  1.00  0.00  0.00  0.00  0.63  0.00
  YS02001767YS02001765    1.00   0.00  0.00  0.00  1.00  0.00  0.00  0.00  0.01  0.00
  YS02001770YS02001767    1.00   0.00  0.00  0.00  1.00  0.00  0.00  0.00  0.00  0.00
  YS02001774YS02001770    1.00   0.00  0.10  0.00  0.83  0.00  0.07  0.00  0.03  0.00
  YS02001779YS02001774    1.00   0.00  0.00  0.00  1.00  0.00  0.00  0.00  0.73  0.00
  YS02001783YS02001784    1.00   0.00  0.12  0.00  0.88  0.00  0.00  0.00  0.54  0.00
  YS02001784YS02001785    1.00   0.00  0.00  0.00  1.00  0.00  0.00  0.00  0.16  0.00
  YS02001786YS02001788    1.00   0.00  0.00  0.00  0.73  0.27  0.00  0.00  0.00  0.00
  YS02001788YS02001790    1.00   0.00  0.00  0.00  0.15  0.85  0.00  0.00  0.79  0.00
  YS02001790YS02001791    1.00   0.00  0.00  0.00  0.01  0.99  0.00  0.00  0.17  0.00
  YS02001791YS02001793    1.00   0.00  0.00  0.00  0.00  1.00  0.00  0.00  0.01  0.00
  YS02001793JiankangQianchi    1.00   0.00  0.00  0.00  0.96  0.04  0.00  0.00  0.97  0.00
  YS02001882YS02001884    1.00   0.10  0.00  0.00  0.89  0.00  0.00  0.00  0.00  0.00
  YS02001884YS02001887    1.00   0.07  0.02  0.00  0.91  0.00  0.00  0.00  0.00  0.00
  YS02001887YS02001890    1.00   0.00  0.00  0.00  0.97  0.00  0.03  0.00  0.00  0.00
  YS02001890YS02001895    1.00   0.00  0.11  0.00  0.89  0.00  0.00  0.00  0.00  0.00
  YS02001895YS02001898    1.00   0.11  0.00  0.00  0.88  0.00  0.01  0.00  0.00  0.00
  YS02001898YS02001901    1.00   0.11  0.00  0.00  0.89  0.00  0.00  0.00  0.01  0.00
  YS02001901YS02001904    1.00   0.11  0.00  0.00  0.89  0.00  0.00  0.00  0.00  0.00
  YS02001904YS02001907    1.00   0.00  0.11  0.00  0.89  0.00  0.00  0.00  0.00  0.00
  YS02001907YS02006553    1.00   0.00  0.02  0.00  0.98  0.00  0.00  0.00  0.00  0.00
  YS02001910YS02001907    1.00   0.00  0.00  0.00  0.97  0.01  0.00  0.02  0.12  0.00
  YS02001915YS02001910    1.00   0.00  0.00  0.00  0.98  0.02  0.00  0.00  0.15  0.00
  YS02001918YS02001915    1.00   0.00  0.00  0.00  0.98  0.02  0.00  0.00  0.73  0.00
  YS02001920YS02001918    1.00   0.00  0.00  0.00  1.00  0.00  0.00  0.00  0.00  0.00
  YS02001923YS02001920    1.00   0.00  0.00  0.00  1.00  0.00  0.00  0.00  0.92  0.00
  YS02001926YS02001923    1.00   0.00  0.07  0.00  0.07  0.00  0.86  0.00  0.00  0.00
  YS02001929YS02001926    1.00   0.00  0.10  0.00  0.90  0.00  0.00  0.00  0.82  0.00
  YS02006553YS02006556    1.00   0.01  0.00  0.00  0.99  0.00  0.00  0.00  0.03  0.00
  YS02006556YS02006558    1.00   0.00  0.00  0.00  1.00  0.00  0.00  0.00  0.00  0.00
  YS02006558YS02006561    1.00   0.12  0.00  0.00  0.06  0.82  0.00  0.00  0.18  0.00
  YS02006561YS02001783    1.00   0.12  0.00  0.00  0.10  0.78  0.00  0.00  0.67  0.00
  YS02163301YS02001633    1.00   0.00  0.10  0.00  0.90  0.00  0.00  0.00  0.00  0.00
  YS02163601YS02164001    1.00   0.00  0.08  0.00  0.92  0.00  0.00  0.00  0.00  0.00
  YS02164001YS02001641    1.00   0.00  0.07  0.00  0.92  0.00  0.00  0.00  0.05  0.00
  YSB1154YSB6556          1.00   0.10  0.00  0.00  0.90  0.00  0.00  0.00  0.02  0.00
  YSB1171HS02004479       1.00   0.05  0.00  0.00  0.94  0.00  0.00  0.02  0.10  0.00
  YSB1174YSB1171          1.00   0.06  0.02  0.00  0.92  0.00  0.00  0.00  0.00  0.00
  YSB6556YSB1171          1.00   0.05  0.05  0.00  0.90  0.00  0.00  0.00  0.00  0.00
  
  
  *************************
  Conduit Surcharge Summary
  *************************
  
  ----------------------------------------------------------------------------
                                                           Hours        Hours 
                         --------- Hours Full --------   Above Full   Capacity
  Conduit                Both Ends  Upstream  Dnstream   Normal Flow   Limited
  ----------------------------------------------------------------------------
  HS02004478WS02006287        0.54      0.54      0.74      0.01         0.01
  HS02004479HS02004480        0.73      0.73      0.76      0.01         0.01
  HS02004480HS02004478        0.66      0.73      0.66      1.82         0.66
  HS02004770HS02004777        0.62      0.62      0.63      0.12         0.07
  HS02004777HS02004785        0.57      0.57      0.63      0.01         0.01
  HS02004785HS02004788        0.56      0.57      0.56      1.53         0.49
  HS02004788HS02004792        0.56      0.56      0.69      0.01         0.01
  HS02004792HS02004799        0.69      0.69      0.84      0.01         0.01
  HS02004799HS02004480        0.73      0.73      0.84      0.95         0.01
  HS02004802HS02004478        0.67      0.67      0.75      0.15         0.01
  HS02004807HS02004802        0.72      0.72      0.74      0.30         0.33
  HS02004817HS02004807        0.72      0.72      1.33      0.01         0.01
  HS02004817HS02004824        0.57      0.57      1.33      0.01         0.01
  HS02004824HS02004830        0.54      0.54      0.57      0.01         0.01
  HS02004830HS02004837        0.50      0.50      0.54      0.01         0.01
  HS02004837HS02004842        0.50      0.50      0.64      0.01         0.01
  HS02004842HS02004848        0.46      0.46      0.64      0.01         0.01
  HS02004848HS02004852        0.46      0.46      0.48      0.02         0.01
  HS02004852HS02004856        0.48      0.48      0.51      0.01         0.01
  HS02004856HS02004862        0.48      0.48      0.51      0.01         0.01
  HS02004862HS02004870        0.51      0.51      0.53      0.20         0.21
  HS02004870HS02004876        0.53      0.53      0.60      0.01         0.01
  HS02004876HS02004881        0.58      0.60      0.58      1.58         0.58
  HS02004881HS02006253        0.58      0.58      2.46      0.01         0.01
  HS02004901HS02004770        0.62      0.62      0.62      0.01         0.01
  WS02003072WS02003073        0.01      0.01      0.01      4.16         0.01
  WS02004401WS02004402        1.73      1.73      1.75      1.54         1.53
  WS02004402WS02004403        1.75      1.75      1.76      1.74         1.72
  WS02004403WS02004404        1.76      1.76      1.95      0.01         0.03
  WS02004404WS02004405        1.91      1.95      1.91      4.83         1.90
  WS02004405WS02004406        1.87      1.91      1.87      2.37         1.86
  WS02004406WS02004407        0.01      0.01      1.87      0.01         0.01
  WS02004407WS02004409        0.01      0.01      1.16      0.01         0.01
  WS02004409WS02004410        1.09      1.16      1.09      1.68         1.09
  WS02004410WS02004411        1.01      1.09      1.01      1.70         1.01
  WS02004411WS02004412        0.88      1.01      0.88      1.72         0.88
  WS02004412WS02004413        0.88      0.88      1.46      0.01         0.01
  WS02004413WS02003067        0.01      0.01      1.46      0.01         0.01
  WS02006109WS02006110        2.22      2.22      3.11      2.24         0.01
  WS02006110WS02006113        1.44      1.44      2.99      0.32         0.01
  WS02006111WS02006112        1.40      1.40      4.05      0.01         0.01
  WS02006112WS02006115        1.70      1.70      2.53      0.01         0.01
  WS02006113WS02006111        1.42      1.44      1.42      1.51         1.42
  WS02006115WS02006116        1.70      1.71      1.71      1.67         1.65
  WS02006116WS02004401        1.73      1.73      1.73      1.74         1.71
  WS02006228WS02006109        2.85      3.12      2.85      4.48         2.85
  WS02006229WS02006228        2.80      2.94      2.80      3.99         2.80
  WS02006230WS02006229        3.45      3.79      3.45      4.77         2.28
  WS02006231WS02006230        2.05      2.06      2.35      4.52         1.14
  WS02006232WS02006231        2.29      2.29      2.97      0.04         0.16
  WS02006234WS02006232        2.68      2.68      2.97      0.03         0.05
  WS02006235WS02006234        2.65      2.65      2.73      4.38         1.11
  WS02006238WS02006235        2.77      2.78      2.97      0.01         0.39
  WS02006239WS02006238        2.84      2.92      2.84      2.77         1.11
  WS02006240WS02006239        2.74      2.80      2.75      2.73         1.01
  WS02006242WS02006240        2.77      2.77      3.18      3.38         1.05
  WS02006243WS02006242        2.84      2.84      3.01      0.01         0.02
  WS02006245WS02006243        2.81      2.84      2.81      1.66         1.01
  WS02006247WS02006245        2.81      2.90      2.81      4.16         1.50
  WS02006248WS02006247        2.81      2.81      2.87      0.01         0.03
  WS02006249WS02006248        2.79      2.79      2.85      2.95         0.01
  WS02006251WS02006249        2.84      2.88      2.85      3.28         2.62
  WS02006252WS02006251        3.48      3.48      3.56      2.81         0.09
  WS02006253WS02006251        2.87      2.87      2.92      0.87         0.02
  WS02006256WS02006235        4.56      4.59      7.63      0.50         0.01
  WS02006280WS02006229        0.89      0.89      1.07      0.01         0.01
  WS02006284WS02006280        0.76      0.76      0.86      0.01         0.01
  WS02006287WS02006284        0.65      0.65      0.78      0.36         0.35
  YS02001580YS02001583        0.68      0.68      0.75      0.01         0.01
  YS02001583YS02001586        0.69      0.69      0.83      0.01         0.01
  YS02001586YS02001590        0.84      0.84      0.92      0.01         0.01
  YS02001590YS02001593        0.91      0.91      0.94      0.92         0.01
  YS02001593YS02001596        0.93      0.93      1.04      0.01         0.01
  YS02001596YS02001600        1.10      1.10      1.20      0.01         0.01
  YS02001600YS02001601        1.26      1.26      1.57      0.01         0.01
  YS02001601YS02001602        1.45      1.45      1.61      1.20         0.01
  YS02001602YS02001605        1.39      1.39      1.45      2.46         0.01
  YS02001605YS02001607        1.35      1.39      1.35      1.50         1.33
  YS02001607YS02001610        0.91      0.91      0.93      0.01         0.01
  YS02001610YS02001613        0.90      0.90      0.93      0.01         0.01
  YS02001613YS02001616        0.86      0.86      0.90      0.01         0.01
  YS02001616YS02001619        0.85      0.85      0.86      0.01         0.05
  YS02001619YS02001622        0.85      0.85      0.85      0.89         0.78
  YS02001622YS02001625        0.85      0.85      1.03      0.01         0.01
  YS02001625YS02001629        0.79      0.79      1.03      0.01         0.01
  YS02001629YS02163301        1.03      1.03      1.04      0.08         0.15
  YS02001633YS02163601        1.06      1.06      1.10      0.27         0.27
  YS02001641YS02001644        0.97      1.00      0.97      1.66         0.95
  YS02001644YS02001647        0.77      0.77      0.97      0.01         0.01
  YS02001647YS02001649        0.77      0.77      0.88      0.01         0.01
  YS02001649YS02001757        0.88      0.88      0.95      0.07         0.06
  YS02001652YS02001649        0.73      0.73      0.88      0.01         0.01
  YS02001655YS02001652        0.54      0.54      0.71      0.01         0.01
  YS02001658YS02001655        0.30      0.30      0.54      0.01         0.01
  YS02001661YS02001658        0.08      0.08      0.30      0.01         0.01
  YS02001664YS02001661        0.01      0.01      0.13      0.01         0.01
  YS02001745YS02001748        0.01      0.01      0.24      0.01         0.01
  YS02001748YS02001751        0.28      0.28      0.42      0.01         0.01
  YS02001751YS02001754        0.42      0.42      0.63      0.01         0.01
  YS02001754YS02001757        0.67      0.67      0.95      0.01         0.01
  YS02001757CaochengTiaoxuchi        0.95      0.95      1.95      0.36         0.36
  YS02001759YS02001757        0.87      0.87      0.95      0.01         0.01
  YS02001762YS02001759        0.84      0.84      0.87      0.01         0.02
  YS02001765YS02001762        0.81      0.81      0.84      0.01         0.01
  YS02001767YS02001765        0.78      0.78      0.81      0.01         0.01
  YS02001770YS02001767        0.78      0.78      0.78      0.50         0.52
  YS02001774YS02001770        0.74      0.74      0.83      0.01         0.01
  YS02001779YS02001774        0.61      0.61      0.83      0.01         0.01
  YS02001783YS02001784        0.56      0.59      0.56      0.77         0.56
  YS02001784YS02001785        0.44      0.56      0.44      1.07         0.44
  YS02001786YS02001788        0.01      0.44      0.01      0.91         0.01
  YS02001790YS02001791        0.01      0.01      0.01      0.54         0.01
  YS02001793JiankangQianchi        0.01      0.01      6.57      0.01         0.01
  YS02001882YS02001884        0.53      0.53      0.54      0.01         0.01
  YS02001884YS02001887        0.56      0.56      0.57      0.01         0.01
  YS02001887YS02001890        0.59      0.59      0.61      0.14         0.01
  YS02001890YS02001895        0.51      0.51      0.63      0.01         0.01
  YS02001895YS02001898        0.51      0.51      0.51      0.01         0.01
  YS02001898YS02001901        0.52      0.52      0.56      0.01         0.01
  YS02001901YS02001904        0.55      0.55      0.56      0.01         0.01
  YS02001904YS02001907        0.55      0.55      0.89      0.01         0.01
  YS02001907YS02006553        1.08      1.08      1.16      0.01         0.01
  YS02001910YS02001907        0.62      0.62      0.87      0.01         0.01
  YS02001915YS02001910        0.52      0.52      0.62      0.01         0.01
  YS02001918YS02001915        0.43      0.43      0.52      0.01         0.01
  YS02001920YS02001918        0.43      0.43      0.45      0.01         0.01
  YS02001923YS02001920        0.38      0.38      0.45      0.01         0.01
  YS02001926YS02001923        0.13      0.13      0.16      0.01         0.01
  YS02001929YS02001926        0.01      0.01      0.16      0.01         0.01
  YS02006553YS02006556        0.73      0.73      0.89      0.01         0.01
  YS02006556YS02006558        0.81      0.81      0.91      0.01         0.01
  YS02006558YS02006561        0.47      0.71      0.47      1.01         0.47
  YS02006561YS02001783        0.39      0.39      0.59      0.01         0.01
  YS02163301YS02001633        1.04      1.04      1.08      0.01         0.01
  YS02163601YS02164001        1.00      1.00      1.10      0.09         0.01
  YS02164001YS02001641        1.00      1.00      1.00      0.70         0.59
  YSB1154YSB6556              0.81      0.81      0.98      0.01         0.01
  YSB1171HS02004479           0.68      0.68      0.99      0.01         0.01
  YSB1174YSB1171              0.89      0.89      1.25      0.01         0.01
  YSB6556YSB1171              0.81      0.81      1.40      0.01         0.01
  
  
  ***************
  Pumping Summary
  ***************
  
  ---------------------------------------------------------------------------------------------------------
                                                  Min       Avg       Max     Total     Power    % Time Off
                        Percent   Number of      Flow      Flow      Flow    Volume     Usage    Pump Curve
  Pump                 Utilized   Start-Ups       LPS       LPS       LPS  10^6 ltr     Kw-hr    Low   High
  ---------------------------------------------------------------------------------------------------------
  CC-R1                   18.53           6      0.00    683.00    683.00     3.645     69.78    0.0    5.9
  CC-R2                   15.05           8      0.00    683.00    683.00     2.961     57.20    0.0    7.5
  CC-S1                   48.52          25      0.00    200.00    200.00     2.795     18.37    0.0    0.0
  CC-S2                   44.44          20      0.00    200.00    200.00     2.560     17.00    0.0    0.0
  JK-R1                    5.21          25      0.00   1000.00   1000.00     1.501     13.97    0.0    0.0
  JK-R2                    6.54          20      0.00   1000.00   1000.00     1.884     14.53    0.0    0.0
  JK-S                    13.24          26      0.00    300.00    300.00     1.144     19.58    0.0    0.0
  XR-1                    97.91           2      0.00     95.00     95.00     2.679      9.64    0.0    0.0
  XR-2                    93.95           2      0.00     95.00     95.00     2.570      8.80    0.0    0.0
  XR-3                     0.00           1      0.00     95.00     95.00     0.000      0.00    0.0    0.0
  XR-4                     0.00           1      0.00     95.00     95.00     0.000      0.00    0.0    0.0
  

  Analysis begun on:  Mon Feb 27 13:40:23 2023
  Analysis ended on:  Mon Feb 27 13:40:26 2023
  Total elapsed time: 00:00:03