
  OWA STORM WATER MANAGEMENT MODEL - VERSION v5.1.14 (OWA 2023-01-25)
  --------------------------------------------------------------

  WARNING 04: minimum elevation drop used for Conduit WS02004404WS02004405
  WARNING 03: negative offset ignored for Link YS02001904YS02001907
  
  *********************************************************
  NOTE: The summary statistics displayed in this report are
  based on results found at every computational time step,  
  not just on results from each reporting time step.
  *********************************************************
  
  ****************
  Analysis Options
  ****************
  Flow Units ............... LPS
  Process Models:
    Rainfall/Runoff ........ YES
    RDII ................... NO
    Snowmelt ............... NO
    Groundwater ............ NO
    Flow Routing ........... YES
    Ponding Allowed ........ NO
    Water Quality .......... NO
  Infiltration Method ...... HORTON
  Flow Routing Method ...... DYNWAVE
  Surcharge Method ......... EXTRAN
  Starting Date ............ 08/28/2015 08:00:00
  Ending Date .............. 08/28/2015 16:00:00
  Antecedent Dry Days ...... 8.0
  Report Time Step ......... 00:01:00
  Wet Time Step ............ 00:01:00
  Dry Time Step ............ 00:01:00
  Routing Time Step ........ 30.00 sec
  Variable Time Step ....... YES
  Maximum Trials ........... 8
  Number of Threads ........ 1
  Head Tolerance ........... 0.001500 m
  
  
  **************************        Volume         Depth
  Runoff Quantity Continuity     hectare-m            mm
  **************************     ---------       -------
  Total Precipitation ......         1.659        27.379
  Evaporation Loss .........         0.000         0.000
  Infiltration Loss ........         0.205         3.382
  Surface Runoff ...........         1.393        23.003
  Final Storage ............         0.061         1.002
  Continuity Error (%) .....        -0.030
  
  
  **************************        Volume        Volume
  Flow Routing Continuity        hectare-m      10^6 ltr
  **************************     ---------     ---------
  Dry Weather Inflow .......         0.630         6.296
  Wet Weather Inflow .......         1.394        13.937
  Groundwater Inflow .......         0.000         0.000
  RDII Inflow ..............         0.000         0.000
  External Inflow ..........         0.105         1.045
  External Outflow .........         1.787        17.874
  Flooding Loss ............         0.335         3.351
  Evaporation Loss .........         0.000         0.000
  Exfiltration Loss ........         0.000         0.000
  Initial Stored Volume ....         0.303         3.031
  Final Stored Volume ......         0.322         3.215
  Continuity Error (%) .....        -0.540
  
  
  *************************
  Highest Continuity Errors
  *************************
  Node YS02001583 (-5.31%)
  Node YS02001884 (5.29%)
  Node HS02004842 (3.25%)
  Node WS02006256 (-3.14%)
  Node YS02001774 (2.67%)
  
  
  ***************************
  Time-Step Critical Elements
  ***************************
  Link WS02006252WS02006251 (29.21%)
  Link WS02006280WS02006229 (29.11%)
  Link WS02006238WS02006235 (15.91%)
  Link WS02004404WS02004405 (9.16%)
  Link WS02003066WSF200 (4.43%)
  
  
  ********************************
  Highest Flow Instability Indexes
  ********************************
  Link WS02006113WS02006111 (38)
  Link WS02006111WS02006112 (17)
  Link WS02006256WS02006235 (16)
  Link WS02006252WS02006251 (16)
  Link WS02006238WS02006235 (13)
  
  
  *************************
  Routing Time Step Summary
  *************************
  Minimum Time Step           :     0.00 sec
  Average Time Step           :     2.01 sec
  Maximum Time Step           :     6.46 sec
  Percent in Steady State     :    -0.00
  Average Iterations per Step :     3.04
  Percent Not Converging      :    10.81
  
  
  ***************************
  Subcatchment Runoff Summary
  ***************************
  
  ------------------------------------------------------------------------------------------------------------------------------
                            Total      Total      Total      Total     Imperv       Perv      Total       Total     Peak  Runoff
                           Precip      Runon       Evap      Infil     Runoff     Runoff     Runoff      Runoff   Runoff   Coeff
  Subcatchment                 mm         mm         mm         mm         mm         mm         mm    10^6 ltr      LPS
  ------------------------------------------------------------------------------------------------------------------------------
  sub0                      27.38       0.00       0.00       0.91      24.21       1.01      25.22        0.02    15.27   0.921
  sub1                      27.38       0.00       0.00       1.51      23.12       1.51      24.62        0.16    87.26   0.899
  sub10                     27.38       0.00       0.00       1.07      23.91       1.12      25.02        0.28   153.53   0.914
  sub11                     27.38       0.00       0.00       1.06      23.92       1.13      25.05        0.29   177.22   0.915
  sub12                     27.38       0.00       0.00       1.73      22.64       1.84      24.48        0.21   146.65   0.894
  sub14                     27.38       0.00       0.00       1.21      23.66       1.26      24.92        0.24   137.73   0.910
  sub15                     27.38       0.00       0.00       4.56      18.19       3.66      21.85        0.38   191.27   0.798
  sub16                     27.38       0.00       0.00       4.77      17.43       4.27      21.70        0.23   132.21   0.793
  sub17                     27.38       0.00       0.00       4.64      17.69       4.12      21.81        0.19   107.40   0.797
  sub2                      27.38       0.00       0.00       6.30      16.35       3.83      20.18        0.19    79.42   0.737
  sub22                     27.38       0.00       0.00       6.83      14.82       4.94      19.77        1.25   619.79   0.722
  sub23                     27.38       0.00       0.00       5.63      16.39       4.50      20.89        1.00   525.51   0.763
  sub3                      27.38       0.00       0.00       6.69      16.31       3.44      19.75        0.44   165.68   0.722
  sub4                      27.38       0.00       0.00       1.64      22.97       1.37      24.34        0.51   185.19   0.889
  sub5                      27.38       0.00       0.00       0.94      24.16       0.98      25.14        0.28   153.97   0.918
  sub60                     27.38       0.00       0.00       1.61      22.89       1.67      24.56        0.32   198.14   0.897
  sub61                     27.38       0.00       0.00       2.32      21.59       2.33      23.92        0.44   269.56   0.874
  sub62                     27.38       0.00       0.00       1.08      23.90       1.12      25.02        0.69   372.38   0.914
  sub63                     27.38       0.00       0.00       4.22      18.47       3.72      22.18        0.50   281.73   0.810
  sub64                     27.38       0.00       0.00       2.14      22.07       1.96      24.03        0.58   284.35   0.878
  sub65                     27.38       0.00       0.00       1.86      22.57       1.70      24.27        0.67   313.15   0.887
  sub66                     27.38       0.00       0.00       4.99      18.37       2.95      21.32        0.99   373.17   0.779
  sub67                     27.38       0.00       0.00       1.05      23.94       1.14      25.08        0.47   318.81   0.916
  sub68                     27.38       0.00       0.00       1.92      22.36       1.91      24.27        0.67   380.64   0.886
  sub69                     27.38       0.00       0.00       1.62      23.16       2.48      25.65        0.95   443.14   0.937
  sub7                      27.38       0.00       0.00       1.19      23.67       1.27      24.94        0.08    53.13   0.911
  sub70                     27.38       0.00       0.00       5.13      17.91       4.18      22.10        0.64   219.96   0.807
  sub71                     27.38       0.00       0.00       1.10      23.86       1.10      24.96        0.65   309.95   0.912
  sub72                     27.38       0.00       0.00       0.97      24.07       0.95      25.01        0.34   143.10   0.914
  sub8                      27.38       0.00       0.00       1.20      23.66       1.26      24.92        0.16    94.59   0.910
  sub9                      27.38       0.00       0.00       1.20      23.66       1.26      24.92        0.12    70.27   0.910
  
  
  ******************
  Node Depth Summary
  ******************
  
  ---------------------------------------------------------------------------------
                                 Average  Maximum  Maximum  Time of Max    Reported
                                   Depth    Depth      HGL   Occurrence   Max Depth
  Node                 Type       Meters   Meters   Meters  days hr:min      Meters
  ---------------------------------------------------------------------------------
  HS02004478           JUNCTION     0.12     0.94    10.17     0  01:42        0.90
  HS02004479           JUNCTION     0.18     1.14    10.34     0  01:42        1.09
  HS02004480           JUNCTION     0.15     1.10    10.34     0  01:42        1.04
  HS02004770           JUNCTION     0.17     1.42    11.25     0  01:41        1.01
  HS02004777           JUNCTION     0.19     1.41    11.21     0  01:41        1.01
  HS02004785           JUNCTION     0.09     1.19    11.09     0  01:41        0.88
  HS02004788           JUNCTION     0.06     1.17    11.07     0  01:41        0.87
  HS02004792           JUNCTION     0.10     1.60    11.12     0  01:39        1.11
  HS02004799           JUNCTION     0.20     1.31    10.53     0  01:39        1.22
  HS02004802           JUNCTION     0.21     1.03    10.16     0  01:42        1.00
  HS02004807           JUNCTION     0.18     1.01    10.18     0  01:42        0.98
  HS02004817           JUNCTION     0.47     1.35    10.19     0  01:42        1.32
  HS02004824           JUNCTION     0.07     0.79    10.19     0  01:42        0.77
  HS02004830           JUNCTION     0.07     0.68    10.15     0  01:43        0.68
  HS02004837           JUNCTION     0.05     0.57    10.15     0  01:43        0.54
  HS02004842           JUNCTION     0.34     1.03    10.30     0  01:41        0.85
  HS02004848           JUNCTION     0.03     0.49    10.09     0  01:43        0.48
  HS02004852           JUNCTION     0.04     0.51    10.02     0  01:44        0.50
  HS02004856           JUNCTION     0.09     0.54     9.96     0  01:44        0.52
  HS02004862           JUNCTION     0.05     0.49     9.88     0  01:48        0.49
  HS02004870           JUNCTION     0.04     0.55     9.84     0  01:47        0.55
  HS02004876           JUNCTION     0.08     0.84     9.87     0  01:46        0.79
  HS02004881           JUNCTION     0.03     0.81     9.83     0  01:46        0.73
  HS02004901           JUNCTION     0.17     1.42    11.24     0  01:41        1.02
  WS02001211           JUNCTION     0.62     0.83     5.67     0  01:48        0.83
  WS02001212           JUNCTION     0.36     0.60     5.67     0  01:48        0.58
  WS02001213           JUNCTION     0.58     0.93     5.69     0  01:47        0.88
  WS02003059           JUNCTION     0.64     0.94     5.62     0  01:50        0.91
  WS02003060           JUNCTION     0.37     0.66     5.60     0  01:50        0.66
  WS02003066           JUNCTION     0.22     0.43     5.99     0  01:49        0.43
  WS02003067           JUNCTION     0.54     0.91     6.23     0  01:42        0.89
  WS02003069           JUNCTION     0.41     0.75     5.33     0  01:51        0.74
  WS02003072           JUNCTION     0.47     0.79     5.16     0  01:50        0.79
  WS02003073           JUNCTION     0.28     0.50     4.56     0  01:50        0.50
  WS02004138           JUNCTION     0.13     0.14     7.39     0  00:33        0.14
  WS02004139           JUNCTION     0.56     0.76     5.67     0  01:46        0.74
  WS02004401           JUNCTION     0.72     2.66     8.66     0  01:40        2.62
  WS02004402           JUNCTION     0.74     2.74     8.70     0  01:40        1.57
  WS02004403           JUNCTION     0.75     3.03     8.96     0  01:40        1.52
  WS02004404           JUNCTION     0.82     3.61     9.46     0  01:40        1.55
  WS02004405           JUNCTION     0.81     3.70     9.55     0  01:40        1.50
  WS02004406           JUNCTION     0.80     3.45     9.28     0  01:40        1.41
  WS02004407           JUNCTION     0.23     0.76     7.07     0  01:44        0.76
  WS02004409           JUNCTION     0.50     1.33     7.10     0  01:42        1.26
  WS02004410           JUNCTION     0.51     1.88     7.60     0  01:42        1.19
  WS02004411           JUNCTION     0.52     1.40     7.08     0  01:42        1.12
  WS02004412           JUNCTION     0.52     1.10     6.74     0  01:42        1.05
  WS02004413           JUNCTION     0.66     2.09     7.56     0  01:42        1.11
  WS02006109           JUNCTION     0.87     2.64     9.26     0  01:40        2.64
  WS02006110           JUNCTION     0.83     2.76     9.34     0  01:40        2.76
  WS02006111           JUNCTION     0.32     2.30     9.00     0  01:40        2.30
  WS02006112           JUNCTION     0.91     2.68     8.56     0  01:40        2.68
  WS02006113           JUNCTION     0.41     2.48     9.37     0  01:40        2.48
  WS02006115           JUNCTION     0.63     3.17     9.31     0  01:40        3.17
  WS02006116           JUNCTION     0.70     2.95     8.99     0  01:40        2.95
  WS02006228           JUNCTION     0.90     3.03     9.68     0  01:40        2.82
  WS02006229           JUNCTION     0.89     3.25     9.94     0  01:40        2.94
  WS02006230           JUNCTION     0.87     2.65     9.39     0  01:39        2.65
  WS02006231           JUNCTION     0.62     2.19     9.31     0  01:43        2.19
  WS02006232           JUNCTION     0.73     2.18     9.22     0  01:38        2.18
  WS02006234           JUNCTION     0.64     1.96     9.12     0  01:38        1.96
  WS02006235           JUNCTION     0.66     2.00     9.16     0  01:38        2.00
  WS02006238           JUNCTION     0.69     2.13     9.28     0  01:38        2.03
  WS02006239           JUNCTION     0.65     2.03     9.24     0  01:38        2.03
  WS02006240           JUNCTION     0.61     2.10     9.39     0  01:38        1.63
  WS02006242           JUNCTION     0.67     1.55     8.82     0  01:39        1.55
  WS02006243           JUNCTION     0.57     1.48     8.90     0  01:39        1.36
  WS02006245           JUNCTION     0.57     1.56     9.05     0  01:39        1.27
  WS02006247           JUNCTION     0.59     1.47     8.97     0  01:39        1.22
  WS02006248           JUNCTION     0.54     1.10     8.69     0  01:39        1.10
  WS02006249           JUNCTION     0.57     1.09     8.69     0  01:39        1.09
  WS02006251           JUNCTION     0.61     2.21     9.88     0  01:50        1.86
  WS02006252           JUNCTION     0.41     1.50     9.74     0  00:00        1.41
  WS02006253           JUNCTION     0.64     2.28     9.92     0  01:39        2.09
  WS02006256           JUNCTION     0.94     2.35     9.28     0  00:00        2.35
  WS02006280           JUNCTION     0.16     1.83    10.10     0  01:40        1.42
  WS02006284           JUNCTION     0.43     2.08    10.48     0  01:40        1.47
  WS02006287           JUNCTION     0.17     1.15    10.11     0  01:40        1.12
  WSF200               JUNCTION     0.21     0.54     5.77     0  01:42        0.49
  YS02001580           JUNCTION     0.02     0.93     9.47     0  01:42        0.67
  YS02001583           JUNCTION     0.05     0.98     9.48     0  01:42        0.71
  YS02001586           JUNCTION     0.09     1.13     9.30     0  01:42        0.92
  YS02001590           JUNCTION     0.17     1.38     9.24     0  01:42        1.20
  YS02001593           JUNCTION     0.11     1.44     9.30     0  01:56        1.15
  YS02001596           JUNCTION     0.15     1.80     9.22     0  01:38        1.56
  YS02001600           JUNCTION     0.20     1.87     9.00     0  01:42        1.81
  YS02001601           JUNCTION     0.37     2.06     8.90     0  01:39        2.06
  YS02001602           JUNCTION     0.30     1.87     8.77     0  01:42        1.87
  YS02001605           JUNCTION     0.27     1.78     8.68     0  01:43        1.78
  YS02001607           JUNCTION     0.28     1.68     8.53     0  01:43        1.68
  YS02001610           JUNCTION     0.32     1.68     8.48     0  01:43        1.68
  YS02001613           JUNCTION     0.28     1.70     8.54     0  01:43        1.70
  YS02001616           JUNCTION     0.21     1.61     8.52     0  01:43        1.61
  YS02001619           JUNCTION     0.19     1.59     8.52     0  01:43        1.59
  YS02001622           JUNCTION     0.18     1.49     8.40     0  01:43        1.49
  YS02001625           JUNCTION     0.43     1.60     8.20     0  01:42        1.58
  YS02001629           JUNCTION     0.28     1.70     8.25     0  01:42        1.48
  YS02001633           JUNCTION     0.35     1.63     8.09     0  01:42        1.37
  YS02001641           JUNCTION     0.34     1.29     7.73     0  01:42        1.16
  YS02001644           JUNCTION     0.34     1.16     7.59     0  01:42        1.10
  YS02001647           JUNCTION     0.14     0.75     7.36     0  01:43        0.74
  YS02001649           JUNCTION     0.17     0.86     7.25     0  01:44        0.84
  YS02001652           JUNCTION     0.08     0.65     7.24     0  01:44        0.62
  YS02001655           JUNCTION     0.05     0.40     7.25     0  01:44        0.37
  YS02001658           JUNCTION     0.04     0.23     7.38     0  01:40        0.23
  YS02001661           JUNCTION     0.10     0.29     7.70     0  01:40        0.29
  YS02001664           JUNCTION     0.04     0.20     8.13     0  01:40        0.20
  YS02001745           JUNCTION     0.03     0.19     7.70     0  01:40        0.19
  YS02001748           JUNCTION     0.04     0.21     7.29     0  01:40        0.21
  YS02001751           JUNCTION     0.04     0.21     7.09     0  01:41        0.21
  YS02001754           JUNCTION     0.06     0.51     7.11     0  01:45        0.49
  YS02001757           JUNCTION     0.19     0.84     7.10     0  01:47        0.83
  YS02001759           JUNCTION     0.15     0.74     7.10     0  01:46        0.74
  YS02001762           JUNCTION     0.14     0.71     7.11     0  01:46        0.71
  YS02001765           JUNCTION     0.12     0.68     7.13     0  01:46        0.66
  YS02001767           JUNCTION     0.12     0.64     7.13     0  01:46        0.64
  YS02001770           JUNCTION     0.13     0.66     7.16     0  01:46        0.65
  YS02001774           JUNCTION     0.19     0.74     7.16     0  01:47        0.73
  YS02001779           JUNCTION     0.04     0.48     7.17     0  01:45        0.47
  YS02001783           JUNCTION     0.15     0.87     7.01     0  01:47        0.86
  YS02001784           JUNCTION     0.17     0.82     6.89     0  01:46        0.82
  YS02001786           JUNCTION     0.15     0.66     6.69     0  01:46        0.66
  YS02001788           JUNCTION     0.11     0.52     6.50     0  01:46        0.52
  YS02001790           JUNCTION     0.13     0.62     6.26     0  01:47        0.61
  YS02001791           JUNCTION     0.08     0.37     5.84     0  01:46        0.37
  YS02001793           JUNCTION     0.04     0.18     5.02     0  01:46        0.18
  YS02001882           JUNCTION     0.19     0.94     7.65     0  01:46        0.94
  YS02001884           JUNCTION     0.27     1.04     7.65     0  01:46        1.03
  YS02001887           JUNCTION     0.35     1.12     7.65     0  01:46        1.11
  YS02001890           JUNCTION     0.38     1.15     7.65     0  01:46        1.14
  YS02001895           JUNCTION     0.16     0.90     7.65     0  01:46        0.90
  YS02001898           JUNCTION     0.17     0.91     7.65     0  01:47        0.91
  YS02001901           JUNCTION     0.27     1.04     7.65     0  01:45        1.04
  YS02001904           JUNCTION     0.26     1.02     7.65     0  01:47        1.01
  YS02001907           JUNCTION     0.56     1.37     7.65     0  01:47        1.35
  YS02001910           JUNCTION     0.36     1.16     7.67     0  01:47        1.15
  YS02001915           JUNCTION     0.19     0.96     7.68     0  01:47        0.95
  YS02001918           JUNCTION     0.07     0.61     7.68     0  01:46        0.60
  YS02001920           JUNCTION     0.15     0.68     7.68     0  01:46        0.67
  YS02001923           JUNCTION     0.05     0.42     7.68     0  01:46        0.42
  YS02001926           JUNCTION     0.09     0.31     7.76     0  01:44        0.31
  YS02001929           JUNCTION     0.04     0.18     7.87     0  01:44        0.18
  YS02006553           JUNCTION     0.56     1.35     7.64     0  01:46        1.35
  YS02006556           JUNCTION     0.54     1.30     7.61     0  01:46        1.30
  YS02006558           JUNCTION     0.58     1.34     7.61     0  01:47        1.34
  YS02006561           JUNCTION     0.09     0.46     7.12     0  01:47        0.45
  YS02163301           JUNCTION     0.30     1.66     8.17     0  01:42        1.36
  YS02163601           JUNCTION     0.39     1.51     7.91     0  01:42        1.31
  YS02164001           JUNCTION     0.33     1.36     7.82     0  01:42        1.19
  YSB1154              JUNCTION     0.30     1.32    10.38     0  01:42        1.25
  YSB1171              JUNCTION     0.45     1.45    10.36     0  01:42        1.39
  YSB1174              JUNCTION     0.26     1.25    10.36     0  01:42        1.19
  YSB6556              JUNCTION     0.21     1.20    10.37     0  01:42        1.14
  CC-1                 OUTFALL      0.00     0.00     0.00     0  00:00        0.00
  CC-2                 OUTFALL      0.00     0.00     0.00     0  00:00        0.00
  JK-1                 OUTFALL      0.00     0.00     0.00     0  00:00        0.00
  JK-2                 OUTFALL      0.00     0.00     0.00     0  00:00        0.00
  WSC                  OUTFALL      0.28     0.50     1.17     0  01:51        0.49
  CC-storage           STORAGE      0.76     1.28     6.78     0  02:10        1.28
  JK-storage           STORAGE      1.30     4.20     5.00     0  01:44        4.17
  XR-storage           STORAGE      7.86     9.26     7.26     0  08:00        9.26
  
  
  *******************
  Node Inflow Summary
  *******************
  
  -------------------------------------------------------------------------------------------------
                                  Maximum  Maximum                  Lateral       Total        Flow
                                  Lateral    Total  Time of Max      Inflow      Inflow     Balance
                                   Inflow   Inflow   Occurrence      Volume      Volume       Error
  Node                 Type           LPS      LPS  days hr:min    10^6 ltr    10^6 ltr     Percent
  -------------------------------------------------------------------------------------------------
  HS02004478           JUNCTION      0.00  1930.92     0  01:39           0        4.71      -0.018
  HS02004479           JUNCTION      0.00   299.05     0  01:40           0       0.508       0.146
  HS02004480           JUNCTION      0.00  1893.57     0  01:41           0        3.63       0.063
  HS02004770           JUNCTION    525.51   658.70     0  01:40       0.996        1.22       0.231
  HS02004777           JUNCTION      0.03   671.28     0  01:40    0.000864        1.22       0.413
  HS02004785           JUNCTION      0.15   679.81     0  01:40     0.00432        1.22       0.043
  HS02004788           JUNCTION    192.94   876.89     0  01:41       0.424        1.64       0.018
  HS02004792           JUNCTION    620.07  1467.81     0  01:41        1.26         2.9       0.010
  HS02004799           JUNCTION    137.73  1604.58     0  01:41       0.237        3.14       0.076
  HS02004802           JUNCTION      0.00   339.08     0  01:56           0         1.1       0.352
  HS02004807           JUNCTION    177.22   325.11     0  01:56       0.291        1.14       0.361
  HS02004817           JUNCTION      0.60   257.66     0  01:42      0.0173        0.91       1.831
  HS02004824           JUNCTION    185.24   435.47     0  01:42       0.509       0.993       0.050
  HS02004830           JUNCTION      0.15   442.43     0  01:42     0.00432       0.584       0.215
  HS02004837           JUNCTION    159.88   550.76     0  01:43       0.459       0.717       0.115
  HS02004842           JUNCTION      0.00   513.13     0  01:43           0       0.396       3.361
  HS02004848           JUNCTION    165.68   678.71     0  01:43       0.445       0.713       0.010
  HS02004852           JUNCTION      0.00   665.88     0  01:43           0       0.599       0.009
  HS02004856           JUNCTION     70.27   722.69     0  01:44        0.12       0.719       0.200
  HS02004862           JUNCTION     79.62   799.34     0  01:44       0.194       0.912       0.018
  HS02004870           JUNCTION     94.59   882.22     0  01:44       0.159        1.07       0.011
  HS02004876           JUNCTION     87.26   945.05     0  01:45       0.164        1.23       0.035
  HS02004881           JUNCTION     53.13   943.84     0  01:45      0.0841        1.32       0.042
  HS02004901           JUNCTION    132.21   132.21     0  01:40       0.227       0.227       0.750
  WS02001211           JUNCTION      7.35   344.10     0  01:46       0.212        5.45       0.609
  WS02001212           JUNCTION      0.00   420.19     0  01:44           0        5.42       0.289
  WS02001213           JUNCTION      0.00   388.17     0  01:43           0        5.42       0.326
  WS02003059           JUNCTION      0.00   439.54     0  01:43           0        5.42       0.591
  WS02003060           JUNCTION     16.53  1448.49     0  01:50       0.476        14.4       0.102
  WS02003066           JUNCTION      0.00  1203.77     0  01:45           0        8.51       0.018
  WS02003067           JUNCTION      0.00  1195.94     0  01:45           0        8.51       0.051
  WS02003069           JUNCTION      0.32  1417.17     0  01:49     0.00922        14.3       0.110
  WS02003072           JUNCTION      0.00  1412.33     0  01:49           0        14.3       0.147
  WS02003073           JUNCTION      1.82  1417.55     0  01:50      0.0524        14.3       0.152
  WS02004138           JUNCTION      0.00   380.00     0  00:00           0        5.25       0.054
  WS02004139           JUNCTION      0.32   280.09     0  01:45     0.00924        5.26       0.509
  WS02004401           JUNCTION      0.00  1227.73     0  01:42           0        8.62       0.116
  WS02004402           JUNCTION      0.00  1236.30     0  01:40           0        8.61       0.119
  WS02004403           JUNCTION      0.00  1251.29     0  01:40           0         8.6       0.112
  WS02004404           JUNCTION      0.16  1269.04     0  01:40     0.00467        8.59       0.101
  WS02004405           JUNCTION      0.04  1291.93     0  01:40      0.0011        8.58       0.140
  WS02004406           JUNCTION      0.00  1314.34     0  01:40           0        8.57       0.237
  WS02004407           JUNCTION      0.00  1324.57     0  01:40           0        8.55       0.019
  WS02004409           JUNCTION      0.00  1324.81     0  01:40           0        8.55       0.038
  WS02004410           JUNCTION      0.00  1328.12     0  01:41           0        8.55       0.055
  WS02004411           JUNCTION      0.00  1271.57     0  01:41           0        8.54       0.069
  WS02004412           JUNCTION      0.00  1195.56     0  01:45           0        8.53       0.093
  WS02004413           JUNCTION      0.00  1195.65     0  01:45           0        8.53       0.165
  WS02006109           JUNCTION      1.23  1274.97     0  01:39      0.0354        8.47       0.071
  WS02006110           JUNCTION      0.00  1274.12     0  01:39           0        8.46       0.094
  WS02006111           JUNCTION      0.00  1280.36     0  01:39           0        8.45      -0.005
  WS02006112           JUNCTION    107.40  1312.67     0  01:40       0.187        8.64       0.204
  WS02006113           JUNCTION      0.00  1273.82     0  01:39           0        8.46       0.037
  WS02006115           JUNCTION      0.00  1269.42     0  01:39           0        8.62       0.071
  WS02006116           JUNCTION      0.00  1226.86     0  01:42           0        8.62      -0.008
  WS02006228           JUNCTION      0.00  1275.22     0  01:39           0        8.44       0.022
  WS02006229           JUNCTION      0.00  1781.12     0  01:42           0        9.22       0.077
  WS02006230           JUNCTION     10.28   679.16     0  01:44       0.296        5.31       0.172
  WS02006231           JUNCTION      0.00   564.86     0  03:30           0        4.87      -0.079
  WS02006232           JUNCTION      0.00   562.88     0  03:30           0        4.85       0.175
  WS02006234           JUNCTION      0.00   558.59     0  03:50           0        4.82      -0.155
  WS02006235           JUNCTION      0.00   565.10     0  04:40           0        4.84       0.153
  WS02006238           JUNCTION      0.00   625.24     0  01:38           0        4.61      -0.258
  WS02006239           JUNCTION      0.00   685.87     0  01:38           0        4.56      -0.267
  WS02006240           JUNCTION      0.00   809.95     0  01:38           0        4.54      -0.024
  WS02006242           JUNCTION      0.00   692.65     0  01:39           0        4.53      -0.013
  WS02006243           JUNCTION      0.00   476.28     0  01:39           0        4.33      -0.314
  WS02006245           JUNCTION      0.00   501.12     0  01:39           0        4.35       0.331
  WS02006247           JUNCTION      0.00   506.77     0  01:39           0        4.35       0.026
  WS02006248           JUNCTION      0.00   529.91     0  01:39           0        4.49      -0.099
  WS02006249           JUNCTION      0.00  1196.22     0  01:47           0        6.14       0.197
  WS02006251           JUNCTION      0.08  1192.96     0  01:47     0.00222        6.23      -0.012
  WS02006252           JUNCTION      0.00   400.00     0  00:00           0        4.79      -0.241
  WS02006253           JUNCTION     15.27   975.50     0  01:50      0.0204        1.42       0.047
  WS02006256           JUNCTION      0.00   300.00     0  00:00           0       0.566      -3.047
  WS02006280           JUNCTION      0.00  1780.02     0  01:42           0        4.71      -0.034
  WS02006284           JUNCTION      0.10  1861.09     0  01:40     0.00275        4.71       0.031
  WS02006287           JUNCTION      0.00  1898.44     0  01:40           0        4.71       0.054
  WSF200               JUNCTION      0.00  1201.56     0  01:45           0        8.51       0.009
  YS02001580           JUNCTION      0.00    81.13     0  01:42           0     0.00412       1.330
  YS02001583           JUNCTION      0.00   106.42     0  01:41           0      0.0151      -5.045
  YS02001586           JUNCTION    219.96   238.92     0  01:43       0.638        0.65       0.200
  YS02001590           JUNCTION      0.00   258.33     0  01:56           0       0.638       0.005
  YS02001593           JUNCTION      0.00   255.09     0  01:56           0       0.638       0.024
  YS02001596           JUNCTION      0.00   244.79     0  01:56           0       0.637      -0.018
  YS02001600           JUNCTION      0.00   233.99     0  01:43           0       0.638       0.007
  YS02001601           JUNCTION    443.14   674.61     0  01:43       0.949        1.59       0.048
  YS02001602           JUNCTION      0.00   554.80     0  01:42           0        1.52       0.025
  YS02001605           JUNCTION      0.00   554.62     0  01:42           0        1.52       0.026
  YS02001607           JUNCTION      0.00   554.26     0  01:42           0        1.52       0.115
  YS02001610           JUNCTION      0.00   547.38     0  01:42           0        1.52       0.146
  YS02001613           JUNCTION      0.00   553.87     0  01:42           0        1.52       0.099
  YS02001616           JUNCTION      0.00   569.76     0  01:42           0        1.52       0.022
  YS02001619           JUNCTION    373.17   905.76     0  01:42       0.994        2.51      -0.008
  YS02001622           JUNCTION      0.00   906.26     0  01:42           0        2.51       0.000
  YS02001625           JUNCTION      0.00   914.08     0  01:42           0        2.51       0.378
  YS02001629           JUNCTION      0.00   915.70     0  01:42           0         2.5       0.030
  YS02001633           JUNCTION    313.35  1205.36     0  01:43       0.674        3.18       0.109
  YS02001641           JUNCTION      0.00  1208.29     0  01:43           0        3.18       0.090
  YS02001644           JUNCTION    284.39  1493.05     0  01:43       0.578        3.75       0.089
  YS02001647           JUNCTION      0.00  1496.12     0  01:43           0        3.74       0.010
  YS02001649           JUNCTION      0.00  1769.66     0  01:44           0        4.25       0.007
  YS02001652           JUNCTION      0.00   313.30     0  01:44           0       0.506      -0.426
  YS02001655           JUNCTION      0.15   282.07     0  01:40     0.00443       0.508       0.349
  YS02001658           JUNCTION      0.00   281.86     0  01:40           0       0.503      -0.008
  YS02001661           JUNCTION      0.00   281.59     0  01:40           0       0.504       0.069
  YS02001664           JUNCTION    281.73   281.73     0  01:40       0.504       0.504      -0.008
  YS02001745           JUNCTION    198.15   198.15     0  01:40       0.323       0.323      -0.003
  YS02001748           JUNCTION      0.04   198.11     0  01:40      0.0013       0.324      -0.000
  YS02001751           JUNCTION      0.01   198.07     0  01:40    0.000317       0.325       0.368
  YS02001754           JUNCTION      0.26   201.37     0  01:41     0.00749       0.331      -0.481
  YS02001757           JUNCTION      0.00  2395.12     0  01:44           0        5.72       0.075
  YS02001759           JUNCTION    269.60   564.77     0  01:46        0.44        1.14      -0.010
  YS02001762           JUNCTION      0.00   349.03     0  01:46           0       0.704       0.024
  YS02001765           JUNCTION      0.00   341.34     0  01:47           0       0.704       0.027
  YS02001767           JUNCTION      0.54   353.19     0  01:47      0.0154       0.704       0.035
  YS02001770           JUNCTION    372.53   372.53     0  01:41        0.69       0.721      -0.009
  YS02001774           JUNCTION      0.00    60.17     0  01:45           0      0.0442       2.738
  YS02001779           JUNCTION      0.01    40.59     0  01:45    0.000144      0.0123       0.098
  YS02001783           JUNCTION      0.00   927.77     0  01:47           0        2.18       0.012
  YS02001784           JUNCTION      1.06   928.98     0  01:47      0.0305        2.21       0.022
  YS02001786           JUNCTION      0.06   929.09     0  01:47     0.00162        2.21       0.028
  YS02001788           JUNCTION      0.07   928.84     0  01:47     0.00204        2.22       0.015
  YS02001790           JUNCTION      0.15   930.01     0  01:46     0.00446        2.22       0.026
  YS02001791           JUNCTION      0.00   999.29     0  01:48           0        2.22       0.002
  YS02001793           JUNCTION      0.00   940.07     0  01:46           0        2.22       0.011
  YS02001882           JUNCTION      0.00    28.11     0  01:39           0      0.0127       5.194
  YS02001884           JUNCTION      0.00    78.64     0  01:38           0      0.0473       5.586
  YS02001887           JUNCTION    319.26   319.26     0  01:39        0.48       0.512       0.877
  YS02001890           JUNCTION      0.00   288.44     0  01:41           0       0.472       1.090
  YS02001895           JUNCTION      0.00   269.11     0  01:41           0       0.467       0.367
  YS02001898           JUNCTION      0.00   239.06     0  01:45           0       0.465       0.060
  YS02001901           JUNCTION      0.00   225.39     0  01:45           0       0.469       0.690
  YS02001904           JUNCTION      0.00   223.14     0  01:45           0       0.483       0.602
  YS02001907           JUNCTION      0.00   644.63     0  01:49           0        1.56       1.160
  YS02001910           JUNCTION      0.00   443.68     0  01:47           0        1.08       0.661
  YS02001915           JUNCTION    309.97   446.32     0  01:47       0.653        1.08       0.152
  YS02001918           JUNCTION      0.00   172.50     0  01:47           0       0.428       0.078
  YS02001920           JUNCTION      2.87   169.37     0  01:45      0.0827       0.429       0.251
  YS02001923           JUNCTION      0.04   142.98     0  01:44     0.00109       0.346      -0.002
  YS02001926           JUNCTION      0.05   143.10     0  01:44      0.0015       0.345       0.084
  YS02001929           JUNCTION    143.10   143.10     0  01:44       0.344       0.344      -0.006
  YS02006553           JUNCTION      0.00   645.19     0  01:49           0        1.55       0.762
  YS02006556           JUNCTION      0.00   645.25     0  01:49           0        1.57       0.528
  YS02006558           JUNCTION    381.52   928.44     0  01:47       0.693        2.23       0.154
  YS02006561           JUNCTION      0.00   927.65     0  01:47           0        2.18       0.001
  YS02163301           JUNCTION      0.00   894.22     0  01:43           0        2.51       0.062
  YS02163601           JUNCTION      0.11  1204.53     0  01:43     0.00317        3.18       0.153
  YS02164001           JUNCTION      0.00  1203.26     0  01:43           0        3.18       0.077
  YSB1154              JUNCTION    153.97   153.97     0  01:41       0.285       0.286       0.503
  YSB1171              JUNCTION      0.00   297.43     0  01:40           0       0.507       1.232
  YSB1174              JUNCTION    146.65   146.65     0  01:39       0.214       0.215       0.581
  YSB6556              JUNCTION      0.00   154.32     0  01:40           0       0.287       0.409
  CC-1                 OUTFALL       0.00   683.00     0  00:00           0        1.55       0.000
  CC-2                 OUTFALL       0.00   683.00     0  00:00           0       0.233       0.000
  JK-1                 OUTFALL       0.00  1000.00     0  00:00           0       0.987       0.000
  JK-2                 OUTFALL       0.00  1000.00     0  00:00           0       0.788       0.000
  WSC                  OUTFALL       0.00  1414.90     0  01:51           0        14.3       0.000
  CC-storage           STORAGE       0.00  2331.10     0  01:45           0        7.95      -0.307
  JK-storage           STORAGE       0.00   940.06     0  01:46           0        2.37      -0.729
  XR-storage           STORAGE     200.00   200.00     0  00:00        5.76        6.36       0.001
  
  
  **********************
  Node Surcharge Summary
  **********************
  
  Surcharging occurs when water rises above the top of the highest conduit.
  ---------------------------------------------------------------------
                                               Max. Height   Min. Depth
                                   Hours       Above Crown    Below Rim
  Node                 Type      Surcharged         Meters       Meters
  ---------------------------------------------------------------------
  HS02004478           JUNCTION        0.01          0.018        0.922
  HS02004479           JUNCTION        0.21          0.336        0.714
  HS02004480           JUNCTION        0.24          0.386        0.714
  HS02004770           JUNCTION        0.15          0.720        0.000
  HS02004777           JUNCTION        0.15          0.713        0.067
  HS02004785           JUNCTION        0.09          0.492        0.298
  HS02004788           JUNCTION        0.07          0.471        0.249
  HS02004792           JUNCTION        0.21          0.900        0.000
  HS02004799           JUNCTION        0.30          0.614        0.446
  HS02004802           JUNCTION        0.24          0.321        0.889
  HS02004807           JUNCTION        0.22          0.313        0.907
  HS02004817           JUNCTION        0.64          0.646        1.094
  HS02004824           JUNCTION        0.05          0.090        1.220
  HS02004842           JUNCTION        0.15          0.333        1.187
  HS02004876           JUNCTION        0.07          0.135        1.425
  HS02004881           JUNCTION        0.05          0.105        1.345
  HS02004901           JUNCTION        0.16          0.720        0.000
  WS02004401           JUNCTION        1.14          1.660        0.000
  WS02004402           JUNCTION        1.17          1.740        0.000
  WS02004403           JUNCTION        1.19          2.030        0.000
  WS02004404           JUNCTION        1.51          2.609        0.171
  WS02004405           JUNCTION        1.46          2.704        0.096
  WS02004406           JUNCTION        1.42          2.450        0.000
  WS02004409           JUNCTION        0.42          0.333        2.027
  WS02004410           JUNCTION        0.36          0.882        1.658
  WS02004411           JUNCTION        0.33          0.398        2.132
  WS02004412           JUNCTION        0.27          0.098        2.212
  WS02004413           JUNCTION        0.68          1.092        1.108
  WS02006109           JUNCTION        2.53          1.820        0.000
  WS02006110           JUNCTION        1.77          1.850        0.000
  WS02006111           JUNCTION        0.60          1.487        0.383
  WS02006112           JUNCTION        2.00          1.680        0.000
  WS02006113           JUNCTION        0.65          1.677        0.253
  WS02006115           JUNCTION        0.96          2.162        0.088
  WS02006116           JUNCTION        0.98          1.887        0.403
  WS02006228           JUNCTION        2.53          2.200        0.000
  WS02006229           JUNCTION        0.38          1.070        0.000
  WS02006230           JUNCTION        1.59          1.570        0.000
  WS02006231           JUNCTION        1.75          1.479        0.051
  WS02006232           JUNCTION        2.51          1.480        0.000
  WS02006234           JUNCTION        2.41          1.240        0.000
  WS02006235           JUNCTION        2.44          1.290        0.000
  WS02006238           JUNCTION        2.47          1.411        0.019
  WS02006239           JUNCTION        2.45          1.290        0.000
  WS02006240           JUNCTION        2.46          1.390        0.000
  WS02006242           JUNCTION        2.52          0.820        0.000
  WS02006243           JUNCTION        2.45          0.770        0.000
  WS02006245           JUNCTION        2.45          0.850        0.000
  WS02006247           JUNCTION        2.45          0.760        0.000
  WS02006248           JUNCTION        2.44          0.380        0.000
  WS02006249           JUNCTION        2.45          0.390        0.000
  WS02006251           JUNCTION        1.94          1.180        0.000
  WS02006252           JUNCTION        3.02          1.100        0.000
  WS02006253           JUNCTION        2.00          1.240        1.240
  WS02006256           JUNCTION        7.67          2.050        0.000
  WS02006280           JUNCTION        0.30          0.780        0.000
  WS02006284           JUNCTION        0.24          0.800        0.000
  WS02006287           JUNCTION        0.16          0.152        0.738
  YS02001580           JUNCTION        0.01          0.330        0.120
  YS02001583           JUNCTION        0.01          0.341        0.159
  YS02001586           JUNCTION        0.24          0.510        0.000
  YS02001590           JUNCTION        0.32          0.732        0.018
  YS02001593           JUNCTION        0.33          0.821        0.019
  YS02001596           JUNCTION        0.42          1.070        0.000
  YS02001600           JUNCTION        0.53          1.190        0.000
  YS02001601           JUNCTION        0.83          1.440        0.000
  YS02001602           JUNCTION        0.72          1.270        0.000
  YS02001605           JUNCTION        0.68          1.180        0.000
  YS02001607           JUNCTION        0.24          0.680        0.000
  YS02001610           JUNCTION        0.27          0.680        0.000
  YS02001613           JUNCTION        0.23          0.700        0.000
  YS02001616           JUNCTION        0.19          0.610        0.000
  YS02001619           JUNCTION        0.17          0.589        0.021
  YS02001622           JUNCTION        0.16          0.491        0.129
  YS02001625           JUNCTION        0.36          0.596        0.184
  YS02001629           JUNCTION        0.01          0.324        0.146
  YS02001633           JUNCTION        0.37          0.613        0.447
  YS02001641           JUNCTION        0.27          0.292        0.808
  YS02001644           JUNCTION        0.21          0.160        0.760
  YS02001783           JUNCTION        0.13          0.067        1.533
  YS02001784           JUNCTION        0.09          0.020        1.470
  YS02001887           JUNCTION        0.11          0.066        0.884
  YS02001890           JUNCTION        0.14          0.096        0.664
  YS02001901           JUNCTION        0.08          0.040        0.830
  YS02001904           JUNCTION        0.05          0.018        0.832
  YS02001907           JUNCTION        0.35          0.356        0.594
  YS02001910           JUNCTION        0.18          0.162        0.938
  YS02006553           JUNCTION        0.36          0.354        0.836
  YS02006556           JUNCTION        0.27          0.262        1.088
  YS02006558           JUNCTION        0.26          0.239        1.161
  YS02163301           JUNCTION        0.35          0.656        0.374
  YS02163601           JUNCTION        0.40          0.509        0.571
  YS02164001           JUNCTION        0.29          0.362        0.738
  YSB1154              JUNCTION        0.39          0.618        0.782
  YSB1171              JUNCTION        0.39          0.602        0.498
  YSB1174              JUNCTION        0.33          0.551        0.699
  YSB6556              JUNCTION        0.28          0.497        0.603
  
  
  *********************
  Node Flooding Summary
  *********************
  
  Flooding refers to all water that overflows a node, whether it ponds or not.
  --------------------------------------------------------------------------
                                                             Total   Maximum
                                 Maximum   Time of Max       Flood    Ponded
                        Hours       Rate    Occurrence      Volume     Depth
  Node                 Flooded       LPS   days hr:min    10^6 ltr    Meters
  --------------------------------------------------------------------------
  HS02004770              0.01     24.06      0  01:41       0.000     0.000
  HS02004792              0.01    128.15      0  01:39       0.000     0.000
  HS02004901              0.01     12.51      0  01:41       0.000     0.000
  WS02004401              0.01     37.39      0  01:40       0.000     0.000
  WS02004402              0.01     50.66      0  01:40       0.000     0.000
  WS02004403              0.01    266.80      0  01:40       0.000     0.000
  WS02004406              0.01    391.85      0  01:40       0.001     0.000
  WS02006109              0.01     89.95      0  01:40       0.001     0.000
  WS02006110              0.01      8.95      0  01:40       0.000     0.000
  WS02006112              0.01    125.21      0  01:40       0.002     0.000
  WS02006228              0.01      6.38      0  01:40       0.000     0.000
  WS02006229              0.01     24.09      0  01:40       0.000     0.000
  WS02006230              0.25    226.22      0  01:44       0.136     0.000
  WS02006232              0.06     99.46      0  01:38       0.000     0.000
  WS02006234              0.31    128.19      0  01:47       0.084     0.000
  WS02006235              0.01    285.37      0  01:38       0.001     0.000
  WS02006239              0.01    616.04      0  01:38       0.002     0.000
  WS02006240              0.01    753.11      0  01:38       0.002     0.000
  WS02006242              0.37    680.90      0  01:39       0.191     0.000
  WS02006243              0.01    361.68      0  01:39       0.004     0.000
  WS02006245              0.01    220.49      0  01:39       0.001     0.000
  WS02006247              0.01     88.68      0  01:39       0.000     0.000
  WS02006248              0.57    366.90      0  01:42       0.539     0.000
  WS02006249              1.73   1128.68      0  01:47       2.040     0.000
  WS02006251              0.01    109.04      0  01:50       0.000     0.000
  WS02006252              0.01    245.63      0  00:00       0.001     0.000
  WS02006256              0.52    296.36      0  01:55       0.285     0.000
  WS02006280              0.01     13.25      0  01:40       0.000     0.000
  WS02006284              0.01    187.63      0  01:40       0.000     0.000
  YS02001586              0.01     38.38      0  01:42       0.000     0.000
  YS02001596              0.01     59.85      0  01:38       0.000     0.000
  YS02001600              0.01      8.90      0  01:56       0.000     0.000
  YS02001601              0.17    230.61      0  01:43       0.061     0.000
  YS02001602              0.01      8.58      0  01:43       0.000     0.000
  YS02001605              0.01      0.53      0  01:43       0.000     0.000
  YS02001607              0.01      1.24      0  01:43       0.000     0.000
  YS02001610              0.01      5.22      0  01:43       0.000     0.000
  YS02001613              0.01      2.20      0  01:43       0.000     0.000
  YS02001616              0.01      2.91      0  01:43       0.000     0.000
  
  
  **********************
  Storage Volume Summary
  **********************
  
  --------------------------------------------------------------------------------------------------
                         Average     Avg  Evap Exfil       Maximum     Max    Time of Max    Maximum
                          Volume    Pcnt  Pcnt  Pcnt        Volume    Pcnt     Occurrence    Outflow
  Storage Unit           1000 m3    Full  Loss  Loss       1000 m3    Full    days hr:min        LPS
  --------------------------------------------------------------------------------------------------
  CC-storage               2.107      33     0     0         3.572      56       0  02:10    1783.53
  JK-storage               0.065      22     0     0         0.211      72       0  01:44    2300.00
  XR-storage               0.943      65     0     0         1.111      77       0  08:00     380.00
  
  
  ***********************
  Outfall Loading Summary
  ***********************
  
  -----------------------------------------------------------
                         Flow       Avg       Max       Total
                         Freq      Flow      Flow      Volume
  Outfall Node           Pcnt       LPS       LPS    10^6 ltr
  -----------------------------------------------------------
  CC-1                   9.16    683.00    683.00       1.552
  CC-2                   0.70    683.00    683.00       0.233
  JK-1                   4.22   1000.00   1000.00       0.987
  JK-2                   3.12   1000.00   1000.00       0.788
  WSC                   99.96    565.82   1414.90      14.314
  -----------------------------------------------------------
  System                23.43   3931.82   4033.97      17.874
  
  
  ********************
  Link Flow Summary
  ********************
  
  -----------------------------------------------------------------------------
                                 Maximum  Time of Max   Maximum    Max/    Max/
                                  |Flow|   Occurrence   |Veloc|    Full    Full
  Link                 Type          LPS  days hr:min     m/sec    Flow   Depth
  -----------------------------------------------------------------------------
  1                    CONDUIT   1414.90     0  01:51      3.64    0.49    0.50
  HS02004478WS02006287 CONDUIT   1898.44     0  01:40      2.86    0.53    1.00
  HS02004479HS02004480 CONDUIT    306.17     0  01:39      0.44    0.30    1.00
  HS02004480HS02004478 CONDUIT   1891.70     0  01:41      2.70    7.97    1.00
  HS02004770HS02004777 CONDUIT    671.25     0  01:40      0.96    1.23    1.00
  HS02004777HS02004785 CONDUIT    679.66     0  01:40      1.04    0.84    1.00
  HS02004785HS02004788 CONDUIT    684.59     0  01:41      1.38    5.16    1.00
  HS02004788HS02004792 CONDUIT    856.48     0  01:41      1.47    0.57    1.00
  HS02004792HS02004799 CONDUIT   1468.91     0  01:41      2.10    0.90    1.00
  HS02004799HS02004480 CONDUIT   1605.76     0  01:41      2.29    2.03    1.00
  HS02004802HS02004478 CONDUIT    354.89     0  01:56      0.69    0.31    1.00
  HS02004807HS02004802 CONDUIT    339.08     0  01:56      0.61    0.65    1.00
  HS02004817HS02004807 CONDUIT    257.06     0  01:42      0.42    0.15    1.00
  HS02004817HS02004824 CONDUIT    257.17     0  01:42      0.51    0.12    1.00
  HS02004824HS02004830 CONDUIT    442.28     0  01:42      0.65    0.58    0.99
  HS02004830HS02004837 CONDUIT    396.28     0  01:43      0.83    0.39    0.89
  HS02004837HS02004842 CONDUIT    513.13     0  01:43      0.81    0.31    0.91
  HS02004842HS02004848 CONDUIT    513.52     0  01:43      0.87    0.30    0.85
  HS02004848HS02004852 CONDUIT    665.88     0  01:43      1.35    0.75    0.70
  HS02004852HS02004856 CONDUIT    659.76     0  01:44      1.27    0.75    0.74
  HS02004856HS02004862 CONDUIT    721.27     0  01:44      1.54    0.72    0.67
  HS02004862HS02004870 CONDUIT    801.10     0  01:44      1.79    0.87    0.74
  HS02004870HS02004876 CONDUIT    865.33     0  01:45      1.84    0.57    0.89
  HS02004876HS02004881 CONDUIT    902.18     0  01:45      2.41    9.60    1.00
  HS02004881HS02006253 CONDUIT    968.87     0  01:50      2.60    0.19    1.00
  HS02004901HS02004770 CONDUIT    133.97     0  01:40      0.19    0.50    1.00
  WS02001211WS02001212 CONDUIT    292.90     0  01:49      0.54    0.22    0.70
  WS02001212WS02001213 CONDUIT    314.40     0  01:49      1.04    0.49    0.58
  WS02001213WS02003059 CONDUIT    286.23     0  01:48      0.47    0.47    0.89
  WS02003059WS02003060 CONDUIT    341.53     0  01:43      0.65    0.22    0.79
  WS02003060WS02003069 CONDUIT   1416.85     0  01:49      2.22    0.55    0.58
  WS02003066WSF200     CONDUIT   1201.56     0  01:45      3.56    0.20    0.38
  WS02003067WS02003066 CONDUIT   1203.77     0  01:45      1.94    0.39    0.55
  WS02003069WS02003072 CONDUIT   1412.33     0  01:49      1.86    0.68    0.64
  WS02003072WS02003073 CONDUIT   1415.72     0  01:50      2.01    3.06    0.60
  WS02004138WS02004139 CONDUIT    190.00     0  00:33      2.15    0.04    0.42
  WS02004139WS02001211 CONDUIT    336.75     0  01:46      0.54    0.43    0.60
  WS02004401WS02004402 CONDUIT   1236.30     0  01:40      1.57    1.48    1.00
  WS02004402WS02004403 CONDUIT   1251.29     0  01:40      1.59    1.80    1.00
  WS02004403WS02004404 CONDUIT   1268.88     0  01:40      1.62    0.92    1.00
  WS02004404WS02004405 CONDUIT   1291.89     0  01:40      1.64   12.66    1.00
  WS02004405WS02004406 CONDUIT   1314.34     0  01:40      1.67    2.59    1.00
  WS02004406WS02004407 CONDUIT   1324.57     0  01:40      2.20    0.59    0.88
  WS02004407WS02004409 CONDUIT   1324.81     0  01:40      2.39    0.47    0.88
  WS02004409WS02004410 CONDUIT   1328.12     0  01:41      1.82    1.72    1.00
  WS02004410WS02004411 CONDUIT   1271.57     0  01:41      1.80    1.74    1.00
  WS02004411WS02004412 CONDUIT   1195.56     0  01:45      1.73    1.70    1.00
  WS02004412WS02004413 CONDUIT   1195.65     0  01:45      1.55    0.80    1.00
  WS02004413WS02003067 CONDUIT   1195.94     0  01:45      1.88    0.51    0.75
  WS02006109WS02006110 CONDUIT   1274.12     0  01:39      2.53    2.45    1.00
  WS02006110WS02006113 CONDUIT   1273.82     0  01:39      2.53    1.16    1.00
  WS02006111WS02006112 CONDUIT   1205.29     0  01:40      2.40    0.57    1.00
  WS02006112WS02006115 CONDUIT   1269.42     0  01:39      1.62    0.75    1.00
  WS02006113WS02006111 CONDUIT   1280.36     0  01:39      2.70    1.53    1.00
  WS02006115WS02006116 CONDUIT   1226.86     0  01:42      1.56    1.57    1.00
  WS02006116WS02004401 CONDUIT   1227.73     0  01:42      1.56    1.69    1.00
  WS02006228WS02006109 CONDUIT   1273.74     0  01:39      2.53    5.57    1.00
  WS02006229WS02006228 CONDUIT   1275.22     0  01:39      2.54    4.22    1.00
  WS02006230WS02006229 CONDUIT    668.88     0  01:44      1.74   14.89    1.00
  WS02006231WS02006230 CONDUIT    566.89     0  03:30      1.50    8.60    1.00
  WS02006232WS02006231 CONDUIT    564.86     0  03:30      1.47    1.18    1.00
  WS02006234WS02006232 CONDUIT    562.88     0  03:30      1.46    1.14    1.00
  WS02006235WS02006234 CONDUIT    558.59     0  03:50      1.45    5.89    1.00
  WS02006238WS02006235 CONDUIT    625.24     0  01:38      1.63    1.40    1.00
  WS02006239WS02006238 CONDUIT    475.04     0  01:38      1.25    1.52    1.00
  WS02006240WS02006239 CONDUIT    439.04     0  01:38      1.26    1.38    1.00
  WS02006242WS02006240 CONDUIT    425.53     0  03:22      1.14    1.69    1.00
  WS02006243WS02006242 CONDUIT    428.83     0  01:39      1.34    0.92    1.00
  WS02006245WS02006243 CONDUIT    476.28     0  01:39      1.39    1.41    1.00
  WS02006247WS02006245 CONDUIT    501.12     0  01:39      1.37    3.97    1.00
  WS02006248WS02006247 CONDUIT    506.77     0  01:39      1.42    1.10    1.00
  WS02006249WS02006248 CONDUIT    529.91     0  01:39      1.39    2.90    1.00
  WS02006251WS02006249 CONDUIT   1196.22     0  01:47      3.11    3.45    1.00
  WS02006252WS02006251 CONDUIT    404.62     0  04:50     26.94    1.49    1.00
  WS02006253WS02006251 CONDUIT    970.26     0  01:50      2.52    2.91    1.00
  WS02006256WS02006235 CONDUIT    288.93     0  00:00      4.23    3.06    1.00
  WS02006280WS02006229 CONDUIT   1781.12     0  01:42      5.15    0.38    1.00
  WS02006284WS02006280 CONDUIT   1780.02     0  01:42      3.23    0.75    1.00
  WS02006287WS02006284 CONDUIT   1860.99     0  01:40      3.01    0.86    1.00
  WSF200WS02003060     CONDUIT   1327.06     0  01:42      3.05    0.29    0.48
  YS02001580YS02001583 CONDUIT     81.13     0  01:42      0.60    0.31    1.00
  YS02001583YS02001586 CONDUIT    102.06     0  01:41      0.47    0.15    1.00
  YS02001586YS02001590 CONDUIT    258.33     0  01:56      1.29    0.45    1.00
  YS02001590YS02001593 CONDUIT    255.09     0  01:56      1.01    1.60    1.00
  YS02001593YS02001596 CONDUIT    244.79     0  01:56      1.67    0.39    1.00
  YS02001596YS02001600 CONDUIT    233.99     0  01:43      1.16    0.46    1.00
  YS02001600YS02001601 CONDUIT    234.55     0  01:43      0.83    0.40    1.00
  YS02001601YS02001602 CONDUIT    554.80     0  01:42      1.96    2.00    1.00
  YS02001602YS02001605 CONDUIT    554.62     0  01:42      1.96   11.74    1.00
  YS02001605YS02001607 CONDUIT    554.26     0  01:42      1.96    3.04    1.00
  YS02001607YS02001610 CONDUIT    547.38     0  01:42      0.76    0.52    1.00
  YS02001610YS02001613 CONDUIT    553.87     0  01:42      0.73    0.64    1.00
  YS02001613YS02001616 CONDUIT    569.76     0  01:42      0.74    0.49    1.00
  YS02001616YS02001619 CONDUIT    541.44     0  01:42      0.76    0.94    1.00
  YS02001619YS02001622 CONDUIT    906.26     0  01:42      1.48    1.34    1.00
  YS02001622YS02001625 CONDUIT    914.08     0  01:42      1.16    0.49    1.00
  YS02001625YS02001629 CONDUIT    915.70     0  01:42      1.17    0.44    1.00
  YS02001629YS02163301 CONDUIT    894.22     0  01:43      1.14    1.10    1.00
  YS02001633YS02163601 CONDUIT   1204.42     0  01:43      1.53    1.26    1.00
  YS02001641YS02001644 CONDUIT   1211.59     0  01:43      1.54    3.92    1.00
  YS02001644YS02001647 CONDUIT   1496.12     0  01:43      2.05    0.88    0.88
  YS02001647YS02001649 CONDUIT   1517.70     0  01:43      2.32    0.80    0.79
  YS02001649YS02001757 CONDUIT   1761.38     0  01:44      2.52    1.07    0.84
  YS02001652YS02001649 CONDUIT    343.35     0  01:44      1.11    0.17    0.74
  YS02001655YS02001652 CONDUIT    313.30     0  01:44      1.81    0.15    0.50
  YS02001658YS02001655 CONDUIT    281.91     0  01:40      1.92    0.12    0.31
  YS02001661YS02001658 CONDUIT    281.86     0  01:40      2.07    0.11    0.23
  YS02001664YS02001661 CONDUIT    281.59     0  01:40      1.86    0.09    0.25
  YS02001745YS02001748 CONDUIT    198.07     0  01:40      1.96    0.08    0.19
  YS02001748YS02001751 CONDUIT    198.06     0  01:40      1.64    0.10    0.21
  YS02001751YS02001754 CONDUIT    201.11     0  01:41      1.66    0.10    0.32
  YS02001754YS02001757 CONDUIT    231.11     0  01:45      0.86    0.09    0.66
  YS02001757CaochengTiaoxuchi CONDUIT   2331.10     0  01:45      3.58    1.01    0.89
  YS02001759YS02001757 CONDUIT    558.35     0  01:46      1.29    0.40    0.78
  YS02001762YS02001759 CONDUIT    366.83     0  01:46      0.66    0.42    0.73
  YS02001765YS02001762 CONDUIT    349.03     0  01:46      0.78    0.33    0.69
  YS02001767YS02001765 CONDUIT    341.34     0  01:47      0.94    0.43    0.66
  YS02001770YS02001767 CONDUIT    352.66     0  01:47      0.93    1.40    0.65
  YS02001774YS02001770 CONDUIT     60.17     0  01:45      0.21    0.04    0.68
  YS02001779YS02001774 CONDUIT     52.72     0  01:49      0.12    0.03    0.60
  YS02001783YS02001784 CONDUIT    927.92     0  01:47      1.85    1.28    1.00
  YS02001784YS02001785 CONDUIT    929.03     0  01:47      1.93    2.16    0.91
  YS02001786YS02001788 CONDUIT    928.77     0  01:47      2.33    1.79    0.74
  YS02001788YS02001790 CONDUIT    929.85     0  01:46      2.44    0.69    0.71
  YS02001790YS02001791 CONDUIT    999.29     0  01:48      3.10    1.09    0.61
  YS02001791YS02001793 CONDUIT    940.07     0  01:46      6.17    0.40    0.35
  YS02001793JiankangQianchi CONDUIT    940.06     0  01:46      1.94    0.07    0.59
  YS02001882YS02001884 CONDUIT     28.11     0  01:39      0.13    0.03    0.95
  YS02001884YS02001887 CONDUIT     78.64     0  01:38      0.16    0.10    1.00
  YS02001887YS02001890 CONDUIT    288.44     0  01:41      0.40    0.49    1.00
  YS02001890YS02001895 CONDUIT    269.11     0  01:41      0.40    0.13    0.95
  YS02001895YS02001898 CONDUIT    239.06     0  01:45      0.52    0.41    0.89
  YS02001898YS02001901 CONDUIT    225.39     0  01:45      0.34    0.15    0.96
  YS02001901YS02001904 CONDUIT    223.14     0  01:45      0.40    0.35    1.00
  YS02001904YS02001907 CONDUIT    222.56     0  01:45      0.30    0.08    1.00
  YS02001907YS02006553 CONDUIT    645.19     0  01:49      0.72    0.76    1.00
  YS02001910YS02001907 CONDUIT    443.87     0  01:47      0.57    0.25    1.00
  YS02001915YS02001910 CONDUIT    443.68     0  01:47      0.57    0.22    0.98
  YS02001918YS02001915 CONDUIT    184.49     0  01:50      0.44    0.10    0.78
  YS02001920YS02001918 CONDUIT    172.50     0  01:47      0.72    0.17    0.64
  YS02001923YS02001920 CONDUIT    166.50     0  01:45      0.82    0.07    0.54
  YS02001926YS02001923 CONDUIT    142.94     0  01:44      0.88    0.20    0.26
  YS02001929YS02001926 CONDUIT    143.05     0  01:44      0.96    0.07    0.24
  YS02006553YS02006556 CONDUIT    645.25     0  01:49      0.82    0.55    1.00
  YS02006556YS02006558 CONDUIT    645.52     0  01:49      0.82    0.51    1.00
  YS02006558YS02006561 CONDUIT    927.65     0  01:47      3.53    2.05    0.88
  YS02006561YS02001783 CONDUIT    927.77     0  01:47      2.19    0.48    0.79
  YS02163301YS02001633 CONDUIT    892.38     0  01:43      1.14    0.84    1.00
  YS02163601YS02164001 CONDUIT   1203.26     0  01:43      1.53    1.07    1.00
  YS02164001YS02001641 CONDUIT   1208.29     0  01:43      1.54    1.65    1.00
  YSB1154YSB6556       CONDUIT    154.32     0  01:40      0.40    0.28    1.00
  YSB1171HS02004479    CONDUIT    299.05     0  01:40      0.59    0.20    1.00
  YSB1174YSB1171       CONDUIT    147.20     0  01:39      0.38    0.23    1.00
  YSB6556YSB1171       CONDUIT    156.39     0  01:40      0.41    0.16    1.00
  CC-R1                PUMP       683.00     0  00:00              1.00
  CC-R2                PUMP       683.00     0  00:00              1.00
  CC-S1                PUMP       200.00     0  00:00              1.00
  CC-S2                PUMP       200.00     0  00:00              1.00
  JK-R1                PUMP      1000.00     0  00:00              1.00
  JK-R2                PUMP      1000.00     0  00:00              1.00
  JK-S                 PUMP       300.00     0  00:00              1.00
  XR-1                 PUMP        95.00     0  00:00              1.00
  XR-2                 PUMP        95.00     0  00:00              1.00
  XR-3                 PUMP        95.00     0  00:00              1.00
  XR-4                 PUMP        95.00     0  00:00              1.00
  
  
  ***************************
  Flow Classification Summary
  ***************************
  
  -------------------------------------------------------------------------------------
                      Adjusted    ---------- Fraction of Time in Flow Class ---------- 
                       /Actual         Up    Down  Sub   Sup   Up    Down  Norm  Inlet 
  Conduit               Length    Dry  Dry   Dry   Crit  Crit  Crit  Crit  Ltd   Ctrl  
  -------------------------------------------------------------------------------------
  1                       1.00   0.00  0.00  0.00  0.00  1.00  0.00  0.00  0.51  0.00
  HS02004478WS02006287    1.00   0.16  0.00  0.00  0.59  0.25  0.00  0.00  0.63  0.00
  HS02004479HS02004480    1.00   0.04  0.00  0.00  0.96  0.00  0.00  0.00  0.12  0.00
  HS02004480HS02004478    1.00   0.15  0.00  0.00  0.54  0.00  0.00  0.31  0.00  0.00
  HS02004770HS02004777    1.00   0.00  0.14  0.00  0.86  0.00  0.00  0.00  0.04  0.00
  HS02004777HS02004785    1.00   0.00  0.00  0.00  1.00  0.00  0.00  0.00  0.14  0.00
  HS02004785HS02004788    1.00   0.00  0.00  0.00  1.00  0.00  0.00  0.00  0.00  0.00
  HS02004788HS02004792    1.00   0.00  0.00  0.00  0.99  0.01  0.00  0.00  0.95  0.00
  HS02004792HS02004799    1.00   0.00  0.00  0.00  0.99  0.01  0.00  0.00  0.93  0.00
  HS02004799HS02004480    1.00   0.00  0.04  0.00  0.84  0.00  0.12  0.00  0.00  0.00
  HS02004802HS02004478    1.00   0.15  0.00  0.00  0.85  0.00  0.00  0.00  0.02  0.00
  HS02004807HS02004802    1.00   0.14  0.00  0.00  0.85  0.00  0.00  0.01  0.00  0.00
  HS02004817HS02004807    1.00   0.00  0.14  0.00  0.86  0.00  0.00  0.00  0.01  0.00
  HS02004817HS02004824    1.00   0.00  0.00  0.00  1.00  0.00  0.00  0.00  0.90  0.00
  HS02004824HS02004830    1.00   0.00  0.00  0.00  1.00  0.00  0.00  0.00  0.00  0.00
  HS02004830HS02004837    1.00   0.00  0.00  0.00  1.00  0.00  0.00  0.00  0.93  0.00
  HS02004837HS02004842    1.00   0.00  0.00  0.00  1.00  0.00  0.00  0.00  0.11  0.00
  HS02004842HS02004848    1.00   0.00  0.14  0.00  0.86  0.00  0.00  0.00  0.61  0.00
  HS02004848HS02004852    1.00   0.14  0.00  0.00  0.86  0.00  0.00  0.00  0.76  0.00
  HS02004852HS02004856    1.00   0.14  0.01  0.00  0.85  0.00  0.00  0.00  0.74  0.00
  HS02004856HS02004862    1.00   0.00  0.17  0.00  0.83  0.00  0.00  0.00  0.78  0.00
  HS02004862HS02004870    1.00   0.00  0.00  0.00  1.00  0.00  0.00  0.00  0.04  0.00
  HS02004870HS02004876    1.00   0.00  0.00  0.00  0.98  0.01  0.00  0.00  0.91  0.00
  HS02004876HS02004881    1.00   0.02  0.00  0.00  0.82  0.17  0.00  0.00  0.00  0.00
  HS02004881HS02006253    1.00   0.02  0.04  0.00  0.63  0.01  0.00  0.30  0.41  0.00
  HS02004901HS02004770    1.00   0.14  0.00  0.00  0.86  0.00  0.00  0.00  0.01  0.00
  WS02001211WS02001212    1.00   0.00  0.02  0.00  0.98  0.00  0.00  0.00  0.00  0.00
  WS02001212WS02001213    1.00   0.02  0.00  0.00  0.57  0.00  0.41  0.00  0.00  0.00
  WS02001213WS02003059    1.00   0.00  0.00  0.00  0.99  0.00  0.00  0.00  0.00  0.00
  WS02003059WS02003060    1.00   0.00  0.00  0.00  1.00  0.00  0.00  0.00  0.03  0.00
  WS02003060WS02003069    1.00   0.00  0.00  0.00  0.97  0.03  0.00  0.00  0.42  0.00
  WS02003066WSF200        1.00   0.11  0.00  0.00  0.00  0.89  0.00  0.00  0.67  0.00
  WS02003067WS02003066    1.00   0.10  0.01  0.00  0.90  0.00  0.00  0.00  0.00  0.00
  WS02003069WS02003072    1.00   0.00  0.00  0.00  1.00  0.00  0.00  0.00  0.49  0.00
  WS02003072WS02003073    1.00   0.00  0.00  0.00  0.00  0.00  0.00  1.00  0.00  0.00
  WS02004138WS02004139    1.00   0.00  0.00  0.00  0.98  0.00  0.00  0.01  0.98  0.00
  WS02004139WS02001211    1.00   0.00  0.00  0.00  1.00  0.00  0.00  0.00  0.00  0.00
  WS02004401WS02004402    1.00   0.02  0.00  0.00  0.98  0.00  0.00  0.00  0.00  0.00
  WS02004402WS02004403    1.00   0.02  0.00  0.00  0.98  0.00  0.00  0.00  0.00  0.00
  WS02004403WS02004404    1.00   0.00  0.02  0.00  0.98  0.00  0.00  0.00  0.00  0.00
  WS02004404WS02004405    1.00   0.00  0.00  0.00  1.00  0.00  0.00  0.00  0.01  0.00
  WS02004405WS02004406    1.00   0.00  0.00  0.00  1.00  0.00  0.00  0.00  0.00  0.00
  WS02004406WS02004407    1.00   0.00  0.06  0.00  0.94  0.00  0.00  0.00  0.00  0.00
  WS02004407WS02004409    1.00   0.06  0.00  0.00  0.90  0.04  0.00  0.00  0.88  0.00
  WS02004409WS02004410    1.00   0.06  0.00  0.00  0.94  0.00  0.00  0.00  0.00  0.00
  WS02004410WS02004411    1.00   0.06  0.00  0.00  0.94  0.00  0.00  0.00  0.00  0.00
  WS02004411WS02004412    1.00   0.06  0.00  0.00  0.93  0.00  0.00  0.00  0.00  0.00
  WS02004412WS02004413    1.00   0.07  0.00  0.00  0.92  0.01  0.00  0.00  0.00  0.00
  WS02004413WS02003067    1.00   0.07  0.03  0.00  0.00  0.00  0.90  0.00  0.00  0.00
  WS02006109WS02006110    1.00   0.00  0.01  0.00  0.99  0.00  0.01  0.00  0.00  0.00
  WS02006110WS02006113    1.00   0.01  0.01  0.00  0.99  0.00  0.00  0.00  0.00  0.00
  WS02006111WS02006112    1.00   0.02  0.00  0.00  0.98  0.00  0.00  0.00  0.80  0.00
  WS02006112WS02006115    1.00   0.02  0.00  0.00  0.98  0.00  0.00  0.00  0.00  0.00
  WS02006113WS02006111    1.00   0.01  0.00  0.00  0.16  0.83  0.00  0.00  0.14  0.00
  WS02006115WS02006116    1.00   0.02  0.00  0.00  0.98  0.00  0.00  0.01  0.00  0.00
  WS02006116WS02004401    1.00   0.02  0.00  0.00  0.98  0.00  0.00  0.00  0.00  0.00
  WS02006228WS02006109    1.00   0.00  0.00  0.00  1.00  0.00  0.00  0.00  0.01  0.00
  WS02006229WS02006228    1.00   0.00  0.00  0.00  0.99  0.00  0.00  0.01  0.00  0.00
  WS02006230WS02006229    1.00   0.00  0.00  0.00  0.99  0.00  0.00  0.01  0.03  0.00
  WS02006231WS02006230    1.00   0.00  0.00  0.00  0.50  0.00  0.49  0.00  0.00  0.00
  WS02006232WS02006231    1.00   0.00  0.00  0.00  0.99  0.00  0.00  0.00  0.00  0.00
  WS02006234WS02006232    1.00   0.00  0.00  0.00  1.00  0.00  0.00  0.00  0.01  0.00
  WS02006235WS02006234    1.00   0.00  0.00  0.00  0.93  0.00  0.07  0.00  0.00  0.00
  WS02006238WS02006235    1.00   0.00  0.00  0.00  1.00  0.00  0.00  0.00  0.00  0.00
  WS02006239WS02006238    1.00   0.00  0.00  0.00  1.00  0.00  0.00  0.00  0.14  0.00
  WS02006240WS02006239    1.00   0.00  0.00  0.00  0.83  0.00  0.00  0.17  0.01  0.00
  WS02006242WS02006240    1.00   0.00  0.00  0.00  0.99  0.00  0.01  0.00  0.00  0.00
  WS02006243WS02006242    1.00   0.00  0.00  0.00  1.00  0.00  0.00  0.00  0.45  0.00
  WS02006245WS02006243    1.00   0.00  0.00  0.00  0.92  0.00  0.00  0.08  0.00  0.00
  WS02006247WS02006245    1.00   0.00  0.00  0.00  0.98  0.00  0.00  0.02  0.00  0.00
  WS02006248WS02006247    1.00   0.00  0.00  0.00  0.99  0.00  0.00  0.01  0.44  0.00
  WS02006249WS02006248    1.00   0.00  0.00  0.00  0.75  0.00  0.25  0.00  0.00  0.00
  WS02006251WS02006249    1.00   0.00  0.00  0.00  1.00  0.00  0.00  0.00  0.44  0.00
  WS02006252WS02006251    1.00   0.00  0.27  0.00  0.31  0.00  0.42  0.00  0.00  0.00
  WS02006253WS02006251    1.00   0.00  0.00  0.00  1.00  0.00  0.00  0.00  0.01  0.00
  WS02006256WS02006235    1.00   0.00  0.00  0.00  0.99  0.01  0.00  0.00  0.00  0.00
  WS02006280WS02006229    1.00   0.15  0.00  0.00  0.10  0.05  0.00  0.70  0.01  0.00
  WS02006284WS02006280    1.00   0.15  0.00  0.00  0.06  0.01  0.00  0.78  0.00  0.00
  WS02006287WS02006284    1.00   0.13  0.03  0.00  0.51  0.32  0.00  0.01  0.69  0.00
  WSF200WS02003060        1.00   0.00  0.11  0.00  0.47  0.42  0.00  0.00  0.50  0.00
  YS02001580YS02001583    1.00   0.21  0.62  0.00  0.17  0.00  0.00  0.00  0.75  0.00
  YS02001583YS02001586    1.00   0.32  0.43  0.00  0.25  0.00  0.00  0.00  0.75  0.00
  YS02001586YS02001590    1.00   0.14  0.00  0.00  0.41  0.09  0.00  0.36  0.33  0.00
  YS02001590YS02001593    1.00   0.14  0.01  0.00  0.08  0.00  0.77  0.00  0.00  0.00
  YS02001593YS02001596    1.00   0.15  0.00  0.00  0.10  0.01  0.00  0.74  0.02  0.00
  YS02001596YS02001600    1.00   0.15  0.00  0.00  0.18  0.02  0.00  0.65  0.06  0.00
  YS02001600YS02001601    1.00   0.15  0.00  0.00  0.85  0.00  0.00  0.00  0.65  0.00
  YS02001601YS02001602    1.00   0.14  0.01  0.00  0.85  0.00  0.00  0.00  0.00  0.00
  YS02001602YS02001605    1.00   0.15  0.00  0.00  0.85  0.00  0.00  0.00  0.00  0.00
  YS02001605YS02001607    1.00   0.15  0.00  0.00  0.85  0.00  0.00  0.00  0.00  0.00
  YS02001607YS02001610    1.00   0.15  0.01  0.00  0.85  0.00  0.00  0.00  0.02  0.00
  YS02001610YS02001613    1.00   0.15  0.00  0.00  0.85  0.00  0.00  0.00  0.02  0.00
  YS02001613YS02001616    1.00   0.14  0.00  0.00  0.86  0.00  0.00  0.00  0.01  0.00
  YS02001616YS02001619    1.00   0.14  0.00  0.00  0.86  0.00  0.00  0.00  0.00  0.00
  YS02001619YS02001622    1.00   0.14  0.00  0.00  0.86  0.00  0.00  0.00  0.33  0.00
  YS02001622YS02001625    1.00   0.14  0.00  0.00  0.86  0.00  0.00  0.00  0.06  0.00
  YS02001625YS02001629    1.00   0.15  0.03  0.00  0.11  0.00  0.71  0.00  0.00  0.00
  YS02001629YS02163301    1.00   0.16  0.00  0.00  0.83  0.00  0.00  0.00  0.00  0.00
  YS02001633YS02163601    1.00   0.00  0.00  0.00  1.00  0.00  0.00  0.00  0.16  0.00
  YS02001641YS02001644    1.00   0.00  0.00  0.00  1.00  0.00  0.00  0.00  0.00  0.00
  YS02001644YS02001647    1.00   0.00  0.17  0.00  0.83  0.00  0.00  0.00  0.00  0.00
  YS02001647YS02001649    1.00   0.00  0.17  0.00  0.39  0.44  0.00  0.00  0.60  0.00
  YS02001649YS02001757    1.00   0.00  0.00  0.00  0.73  0.26  0.00  0.00  0.45  0.00
  YS02001652YS02001649    1.00   0.00  0.00  0.00  0.97  0.03  0.00  0.00  0.78  0.00
  YS02001655YS02001652    1.00   0.00  0.00  0.00  0.13  0.04  0.00  0.83  0.09  0.00
  YS02001658YS02001655    1.00   0.00  0.15  0.00  0.51  0.34  0.00  0.00  0.80  0.00
  YS02001661YS02001658    1.00   0.15  0.00  0.00  0.29  0.55  0.00  0.00  0.79  0.00
  YS02001664YS02001661    1.00   0.14  0.00  0.00  0.73  0.13  0.00  0.00  0.87  0.00
  YS02001745YS02001748    1.00   0.00  0.00  0.00  0.00  0.00  0.00  1.00  0.00  0.00
  YS02001748YS02001751    1.00   0.00  0.00  0.00  0.67  0.33  0.00  0.00  0.86  0.00
  YS02001751YS02001754    1.00   0.00  0.00  0.00  0.10  0.01  0.00  0.89  0.08  0.00
  YS02001754YS02001757    1.00   0.00  0.00  0.00  1.00  0.00  0.00  0.00  0.87  0.00
  YS02001757CaochengTiaoxuchi    1.00   0.00  0.00  0.00  0.97  0.03  0.00  0.00  0.72  0.00
  YS02001759YS02001757    1.00   0.00  0.00  0.00  1.00  0.00  0.00  0.00  0.60  0.00
  YS02001762YS02001759    1.00   0.00  0.00  0.00  1.00  0.00  0.00  0.00  0.05  0.00
  YS02001765YS02001762    1.00   0.00  0.00  0.00  1.00  0.00  0.00  0.00  0.73  0.00
  YS02001767YS02001765    1.00   0.00  0.00  0.00  1.00  0.00  0.00  0.00  0.00  0.00
  YS02001770YS02001767    1.00   0.00  0.00  0.00  1.00  0.00  0.00  0.00  0.00  0.00
  YS02001774YS02001770    1.00   0.00  0.15  0.00  0.75  0.00  0.10  0.00  0.04  0.00
  YS02001779YS02001774    1.00   0.00  0.00  0.00  1.00  0.00  0.00  0.00  0.84  0.00
  YS02001783YS02001784    1.00   0.00  0.18  0.00  0.82  0.00  0.00  0.00  0.58  0.00
  YS02001784YS02001785    1.00   0.00  0.00  0.00  1.00  0.00  0.00  0.00  0.18  0.00
  YS02001786YS02001788    1.00   0.00  0.00  0.00  0.70  0.30  0.00  0.00  0.00  0.00
  YS02001788YS02001790    1.00   0.00  0.00  0.00  0.19  0.81  0.00  0.00  0.89  0.00
  YS02001790YS02001791    1.00   0.00  0.00  0.00  0.01  0.99  0.00  0.00  0.17  0.00
  YS02001791YS02001793    1.00   0.00  0.00  0.00  0.00  1.00  0.00  0.00  0.00  0.00
  YS02001793JiankangQianchi    1.00   0.00  0.00  0.00  1.00  0.00  0.00  0.00  1.00  0.00
  YS02001882YS02001884    1.00   0.16  0.00  0.00  0.84  0.00  0.00  0.00  0.00  0.00
  YS02001884YS02001887    1.00   0.07  0.06  0.00  0.86  0.00  0.00  0.00  0.00  0.00
  YS02001887YS02001890    1.00   0.00  0.00  0.00  0.98  0.00  0.02  0.00  0.00  0.00
  YS02001890YS02001895    1.00   0.00  0.16  0.00  0.83  0.00  0.00  0.00  0.00  0.00
  YS02001895YS02001898    1.00   0.17  0.00  0.00  0.82  0.00  0.01  0.00  0.00  0.00
  YS02001898YS02001901    1.00   0.17  0.00  0.00  0.83  0.00  0.00  0.00  0.01  0.00
  YS02001901YS02001904    1.00   0.17  0.00  0.00  0.83  0.00  0.00  0.00  0.00  0.00
  YS02001904YS02001907    1.00   0.00  0.16  0.00  0.83  0.00  0.00  0.00  0.00  0.00
  YS02001907YS02006553    1.00   0.00  0.02  0.00  0.98  0.00  0.00  0.00  0.00  0.00
  YS02001910YS02001907    1.00   0.00  0.00  0.00  0.98  0.00  0.00  0.02  0.12  0.00
  YS02001915YS02001910    1.00   0.00  0.00  0.00  0.98  0.02  0.00  0.00  0.17  0.00
  YS02001918YS02001915    1.00   0.00  0.00  0.00  0.98  0.01  0.00  0.00  0.80  0.00
  YS02001920YS02001918    1.00   0.00  0.00  0.00  1.00  0.00  0.00  0.00  0.00  0.00
  YS02001923YS02001920    1.00   0.00  0.00  0.00  1.00  0.00  0.00  0.00  0.97  0.00
  YS02001926YS02001923    1.00   0.00  0.11  0.00  0.00  0.00  0.89  0.00  0.00  0.00
  YS02001929YS02001926    1.00   0.00  0.14  0.00  0.86  0.00  0.00  0.00  0.87  0.00
  YS02006553YS02006556    1.00   0.01  0.00  0.00  0.99  0.00  0.00  0.00  0.03  0.00
  YS02006556YS02006558    1.00   0.00  0.00  0.00  1.00  0.00  0.00  0.00  0.00  0.00
  YS02006558YS02006561    1.00   0.18  0.00  0.00  0.00  0.82  0.00  0.00  0.20  0.00
  YS02006561YS02001783    1.00   0.18  0.00  0.00  0.05  0.77  0.00  0.00  0.73  0.00
  YS02163301YS02001633    1.00   0.00  0.16  0.00  0.84  0.00  0.00  0.00  0.00  0.00
  YS02163601YS02164001    1.00   0.00  0.11  0.00  0.89  0.00  0.00  0.00  0.00  0.00
  YS02164001YS02001641    1.00   0.00  0.11  0.00  0.89  0.00  0.00  0.00  0.06  0.00
  YSB1154YSB6556          1.00   0.14  0.00  0.00  0.86  0.00  0.00  0.00  0.02  0.00
  YSB1171HS02004479       1.00   0.05  0.00  0.00  0.93  0.00  0.00  0.02  0.11  0.00
  YSB1174YSB1171          1.00   0.06  0.06  0.00  0.88  0.00  0.00  0.00  0.00  0.00
  YSB6556YSB1171          1.00   0.05  0.09  0.00  0.86  0.00  0.00  0.00  0.00  0.00
  
  
  *************************
  Conduit Surcharge Summary
  *************************
  
  ----------------------------------------------------------------------------
                                                           Hours        Hours 
                         --------- Hours Full --------   Above Full   Capacity
  Conduit                Both Ends  Upstream  Dnstream   Normal Flow   Limited
  ----------------------------------------------------------------------------
  HS02004478WS02006287        0.01      0.01      0.22      0.01         0.01
  HS02004479HS02004480        0.25      0.25      0.26      0.01         0.01
  HS02004480HS02004478        0.16      0.24      0.16      1.10         0.16
  HS02004770HS02004777        0.15      0.15      0.15      0.13         0.06
  HS02004777HS02004785        0.09      0.09      0.15      0.01         0.01
  HS02004785HS02004788        0.07      0.09      0.07      0.78         0.07
  HS02004788HS02004792        0.07      0.07      0.21      0.01         0.01
  HS02004792HS02004799        0.21      0.21      0.30      0.01         0.01
  HS02004799HS02004480        0.24      0.24      0.30      0.36         0.01
  HS02004802HS02004478        0.17      0.17      0.25      0.01         0.01
  HS02004807HS02004802        0.22      0.22      0.24      0.01         0.01
  HS02004817HS02004807        0.22      0.22      0.64      0.01         0.01
  HS02004817HS02004824        0.05      0.05      0.64      0.01         0.01
  HS02004824HS02004830        0.01      0.01      0.05      0.01         0.01
  HS02004837HS02004842        0.01      0.01      0.14      0.01         0.01
  HS02004842HS02004848        0.01      0.01      0.14      0.01         0.01
  HS02004870HS02004876        0.01      0.01      0.07      0.01         0.01
  HS02004876HS02004881        0.05      0.07      0.05      0.82         0.05
  HS02004881HS02006253        0.05      0.05      1.99      0.01         0.01
  HS02004901HS02004770        0.15      0.15      0.16      0.01         0.01
  WS02003072WS02003073        0.01      0.01      0.01      3.46         0.01
  WS02004401WS02004402        1.14      1.14      1.17      0.82         0.79
  WS02004402WS02004403        1.17      1.17      1.19      1.15         1.12
  WS02004403WS02004404        1.19      1.19      1.51      0.01         0.01
  WS02004404WS02004405        1.46      1.51      1.46      4.31         1.46
  WS02004405WS02004406        1.42      1.46      1.42      1.87         1.42
  WS02004406WS02004407        0.01      0.01      1.42      0.01         0.01
  WS02004407WS02004409        0.01      0.01      0.42      0.01         0.01
  WS02004409WS02004410        0.36      0.42      0.36      0.94         0.36
  WS02004410WS02004411        0.33      0.36      0.33      1.03         0.33
  WS02004411WS02004412        0.27      0.33      0.27      1.12         0.27
  WS02004412WS02004413        0.27      0.27      0.68      0.01         0.01
  WS02004413WS02003067        0.01      0.01      0.68      0.01         0.01
  WS02006109WS02006110        1.77      1.77      2.61      1.79         0.01
  WS02006110WS02006113        0.65      0.65      2.57      0.09         0.01
  WS02006111WS02006112        0.60      0.60      3.06      0.01         0.01
  WS02006112WS02006115        0.96      0.96      2.00      0.01         0.01
  WS02006113WS02006111        0.62      0.65      0.62      0.79         0.62
  WS02006115WS02006116        0.98      0.98      0.98      0.93         0.90
  WS02006116WS02004401        1.13      1.14      1.14      1.06         1.03
  WS02006228WS02006109        2.53      2.61      2.53      3.58         2.53
  WS02006229WS02006228        2.53      2.54      2.53      3.07         2.53
  WS02006230WS02006229        2.71      2.90      2.71      4.61         2.20
  WS02006231WS02006230        1.58      1.59      1.79      4.28         0.47
  WS02006232WS02006231        1.75      1.75      2.51      0.08         0.05
  WS02006234WS02006232        2.44      2.44      2.51      0.06         0.09
  WS02006235WS02006234        2.40      2.41      2.44      3.97         0.44
  WS02006238WS02006235        2.45      2.45      2.51      0.01         0.14
  WS02006239WS02006238        2.47      2.48      2.47      2.21         1.51
  WS02006240WS02006239        2.44      2.46      2.45      2.16         1.48
  WS02006242WS02006240        2.45      2.46      2.57      2.75         0.36
  WS02006243WS02006242        2.45      2.45      2.52      0.01         0.04
  WS02006245WS02006243        2.45      2.45      2.45      1.78         1.38
  WS02006247WS02006245        2.45      2.45      2.45      3.60         1.90
  WS02006248WS02006247        2.44      2.44      2.45      0.01         0.05
  WS02006249WS02006248        2.44      2.44      2.45      3.06         0.01
  WS02006251WS02006249        2.45      2.46      2.45      2.90         2.42
  WS02006252WS02006251        3.00      3.00      3.02      2.88         0.01
  WS02006253WS02006251        2.46      2.46      2.48      0.34         0.01
  WS02006256WS02006235        4.17      4.21      7.61      0.37         0.01
  WS02006280WS02006229        0.31      0.31      0.38      0.01         0.01
  WS02006284WS02006280        0.24      0.24      0.30      0.01         0.01
  WS02006287WS02006284        0.16      0.16      0.25      0.01         0.01
  YS02001580YS02001583        0.01      0.01      0.02      0.01         0.01
  YS02001583YS02001586        0.01      0.01      0.24      0.01         0.01
  YS02001586YS02001590        0.25      0.25      0.32      0.01         0.01
  YS02001590YS02001593        0.33      0.33      0.34      0.33         0.01
  YS02001593YS02001596        0.33      0.33      0.42      0.01         0.01
  YS02001596YS02001600        0.45      0.45      0.53      0.01         0.01
  YS02001600YS02001601        0.58      0.58      0.83      0.01         0.01
  YS02001601YS02001602        0.72      0.72      0.87      0.56         0.01
  YS02001602YS02001605        0.68      0.68      0.72      1.72         0.01
  YS02001605YS02001607        0.64      0.68      0.64      0.78         0.64
  YS02001607YS02001610        0.24      0.24      0.27      0.01         0.01
  YS02001610YS02001613        0.23      0.23      0.27      0.01         0.01
  YS02001613YS02001616        0.19      0.19      0.23      0.01         0.01
  YS02001616YS02001619        0.17      0.17      0.19      0.01         0.01
  YS02001619YS02001622        0.16      0.17      0.16      0.35         0.16
  YS02001622YS02001625        0.16      0.16      0.36      0.01         0.01
  YS02001625YS02001629        0.01      0.01      0.36      0.01         0.01
  YS02001629YS02163301        0.34      0.34      0.35      0.21         0.18
  YS02001633YS02163601        0.37      0.37      0.40      0.26         0.25
  YS02001641YS02001644        0.21      0.27      0.21      0.92         0.21
  YS02001644YS02001647        0.01      0.01      0.21      0.01         0.01
  YS02001649YS02001757        0.01      0.01      0.01      0.03         0.01
  YS02001757CaochengTiaoxuchi        0.01      0.01      1.69      0.03         0.01
  YS02001770YS02001767        0.01      0.01      0.01      0.23         0.01
  YS02001783YS02001784        0.09      0.13      0.09      0.29         0.09
  YS02001784YS02001785        0.01      0.09      0.01      0.48         0.01
  YS02001786YS02001788        0.01      0.01      0.01      0.37         0.01
  YS02001790YS02001791        0.01      0.01      0.01      0.06         0.01
  YS02001793JiankangQianchi        0.01      0.01      6.62      0.01         0.01
  YS02001884YS02001887        0.08      0.08      0.11      0.01         0.01
  YS02001887YS02001890        0.14      0.14      0.16      0.01         0.01
  YS02001890YS02001895        0.01      0.01      0.18      0.01         0.01
  YS02001898YS02001901        0.01      0.01      0.08      0.01         0.01
  YS02001901YS02001904        0.05      0.05      0.08      0.01         0.01
  YS02001904YS02001907        0.05      0.05      0.36      0.01         0.01
  YS02001907YS02006553        0.48      0.48      0.53      0.01         0.01
  YS02001910YS02001907        0.18      0.18      0.35      0.01         0.01
  YS02001915YS02001910        0.01      0.01      0.18      0.01         0.01
  YS02006553YS02006556        0.27      0.27      0.36      0.01         0.01
  YS02006556YS02006558        0.32      0.32      0.37      0.01         0.01
  YS02006558YS02006561        0.01      0.26      0.01      0.44         0.01
  YS02006561YS02001783        0.01      0.01      0.13      0.01         0.01
  YS02163301YS02001633        0.35      0.35      0.39      0.01         0.01
  YS02163601YS02164001        0.29      0.29      0.40      0.09         0.01
  YS02164001YS02001641        0.27      0.29      0.27      0.44         0.27
  YSB1154YSB6556              0.28      0.28      0.39      0.01         0.01
  YSB1171HS02004479           0.21      0.21      0.39      0.01         0.01
  YSB1174YSB1171              0.33      0.33      0.56      0.01         0.01
  YSB6556YSB1171              0.28      0.28      0.67      0.01         0.01
  
  
  ***************
  Pumping Summary
  ***************
  
  ---------------------------------------------------------------------------------------------------------
                                                  Min       Avg       Max     Total     Power    % Time Off
                        Percent   Number of      Flow      Flow      Flow    Volume     Usage    Pump Curve
  Pump                 Utilized   Start-Ups       LPS       LPS       LPS  10^6 ltr     Kw-hr    Low   High
  ---------------------------------------------------------------------------------------------------------
  CC-R1                    7.89           7      0.00    683.00    683.00     1.553     28.19    0.0   14.1
  CC-R2                    1.19           9      0.00    683.00    683.00     0.234      3.94    0.0  100.0
  CC-S1                   42.65          22      0.00    200.00    200.00     2.456     16.45    0.0    0.0
  CC-S2                   40.67          19      0.00    200.00    200.00     2.343     15.65    0.0    0.0
  JK-R1                    3.43          25      0.00   1000.00   1000.00     0.987      8.40    0.0    0.0
  JK-R2                    2.73          24      0.00   1000.00   1000.00     0.786      5.82    0.0    0.0
  JK-S                     6.50          27      0.00    300.00    300.00     0.562     10.20    0.0    0.0
  XR-1                    97.91           2      0.00     95.00     95.00     2.679      9.63    0.0    0.0
  XR-2                    93.95           2      0.00     95.00     95.00     2.571      8.80    0.0    0.0
  XR-3                     0.00           1      0.00     95.00     95.00     0.000      0.00    0.0    0.0
  XR-4                     0.00           1      0.00     95.00     95.00     0.000      0.00    0.0    0.0
  

  Analysis begun on:  Mon Feb 27 13:40:22 2023
  Analysis ended on:  Mon Feb 27 13:40:26 2023
  Total elapsed time: 00:00:04