
  OWA STORM WATER MANAGEMENT MODEL - VERSION v5.1.14 (OWA 2023-01-25)
  --------------------------------------------------------------

  WARNING 04: minimum elevation drop used for Conduit WS02004404WS02004405
  WARNING 03: negative offset ignored for Link YS02001904YS02001907
  
  *********************************************************
  NOTE: The summary statistics displayed in this report are
  based on results found at every computational time step,  
  not just on results from each reporting time step.
  *********************************************************
  
  ****************
  Analysis Options
  ****************
  Flow Units ............... LPS
  Process Models:
    Rainfall/Runoff ........ YES
    RDII ................... NO
    Snowmelt ............... NO
    Groundwater ............ NO
    Flow Routing ........... YES
    Ponding Allowed ........ NO
    Water Quality .......... NO
  Infiltration Method ...... HORTON
  Flow Routing Method ...... DYNWAVE
  Surcharge Method ......... EXTRAN
  Starting Date ............ 08/28/2015 08:00:00
  Ending Date .............. 08/28/2015 16:00:00
  Antecedent Dry Days ...... 8.0
  Report Time Step ......... 00:01:00
  Wet Time Step ............ 00:01:00
  Dry Time Step ............ 00:01:00
  Routing Time Step ........ 30.00 sec
  Variable Time Step ....... YES
  Maximum Trials ........... 8
  Number of Threads ........ 1
  Head Tolerance ........... 0.001500 m
  
  
  **************************        Volume         Depth
  Runoff Quantity Continuity     hectare-m            mm
  **************************     ---------       -------
  Total Precipitation ......         3.192        52.691
  Evaporation Loss .........         0.000         0.000
  Infiltration Loss ........         0.228         3.758
  Surface Runoff ...........         2.904        47.944
  Final Storage ............         0.061         1.005
  Continuity Error (%) .....        -0.029
  
  
  **************************        Volume        Volume
  Flow Routing Continuity        hectare-m      10^6 ltr
  **************************     ---------     ---------
  Dry Weather Inflow .......         0.630         6.296
  Wet Weather Inflow .......         2.904        29.043
  Groundwater Inflow .......         0.000         0.000
  RDII Inflow ..............         0.000         0.000
  External Inflow ..........         0.105         1.045
  External Outflow .........         2.337        23.369
  Flooding Loss ............         1.296        12.958
  Evaporation Loss .........         0.000         0.000
  Exfiltration Loss ........         0.000         0.000
  Initial Stored Volume ....         0.303         3.031
  Final Stored Volume ......         0.323         3.225
  Continuity Error (%) .....        -0.347
  
  
  *************************
  Highest Continuity Errors
  *************************
  Node YS02001583 (-12.96%)
  Node YS02001884 (5.16%)
  Node WS02006256 (-2.25%)
  Node HS02004842 (1.85%)
  Node HS02004817 (1.10%)
  
  
  ***************************
  Time-Step Critical Elements
  ***************************
  Link WS02006252WS02006251 (27.55%)
  Link WS02006280WS02006229 (27.12%)
  Link WS02006238WS02006235 (13.88%)
  Link WS02004404WS02004405 (10.32%)
  Link YS02001791YS02001793 (5.41%)
  
  
  ********************************
  Highest Flow Instability Indexes
  ********************************
  Link WS02006113WS02006111 (38)
  Link WS02006111WS02006112 (23)
  Link WS02006238WS02006235 (20)
  Link WS02006229WS02006228 (19)
  Link WS02006252WS02006251 (19)
  
  
  *************************
  Routing Time Step Summary
  *************************
  Minimum Time Step           :     0.00 sec
  Average Time Step           :     2.00 sec
  Maximum Time Step           :     6.46 sec
  Percent in Steady State     :    -0.00
  Average Iterations per Step :     3.39
  Percent Not Converging      :    14.33
  
  
  ***************************
  Subcatchment Runoff Summary
  ***************************
  
  ------------------------------------------------------------------------------------------------------------------------------
                            Total      Total      Total      Total     Imperv       Perv      Total       Total     Peak  Runoff
                           Precip      Runon       Evap      Infil     Runoff     Runoff     Runoff      Runoff   Runoff   Coeff
  Subcatchment                 mm         mm         mm         mm         mm         mm         mm    10^6 ltr      LPS
  ------------------------------------------------------------------------------------------------------------------------------
  sub0                      52.69       0.00       0.00       0.97      47.76       2.72      50.48        0.04    34.06   0.958
  sub1                      52.69       0.00       0.00       1.63      45.65       4.17      49.82        0.33   219.53   0.946
  sub10                     52.69       0.00       0.00       1.15      47.20       3.07      50.26        0.55   377.65   0.954
  sub11                     52.69       0.00       0.00       1.14      47.22       3.08      50.30        0.58   424.85   0.955
  sub12                     52.69       0.00       0.00       1.85      44.67       5.01      49.68        0.43   346.89   0.943
  sub14                     52.69       0.00       0.00       1.29      46.69       3.45      50.15        0.48   335.22   0.952
  sub15                     52.69       0.00       0.00       5.01      35.92      10.80      46.72        0.80   495.87   0.887
  sub16                     52.69       0.00       0.00       5.19      34.40      12.20      46.60        0.49   337.19   0.884
  sub17                     52.69       0.00       0.00       5.06      34.91      11.81      46.72        0.40   273.27   0.887
  sub2                      52.69       0.00       0.00       7.12      32.30      12.38      44.67        0.42   212.37   0.848
  sub22                     52.69       0.00       0.00       7.57      29.25      15.09      44.34        2.80  1622.92   0.842
  sub23                     52.69       0.00       0.00       6.19      32.34      13.31      45.65        2.18  1360.90   0.866
  sub3                      52.69       0.00       0.00       7.72      32.26      11.78      44.03        0.99   451.44   0.836
  sub4                      52.69       0.00       0.00       1.80      45.49       4.00      49.49        1.03   502.40   0.939
  sub5                      52.69       0.00       0.00       1.00      47.70       2.69      50.39        0.57   380.88   0.956
  sub60                     52.69       0.00       0.00       1.73      45.17       4.59      49.76        0.65   480.61   0.944
  sub61                     52.69       0.00       0.00       2.51      42.60       6.45      49.06        0.90   662.57   0.931
  sub62                     52.69       0.00       0.00       1.16      47.19       3.06      50.25        1.38   923.03   0.954
  sub63                     52.69       0.00       0.00       4.60      36.44      10.68      47.13        1.07   717.15   0.894
  sub64                     52.69       0.00       0.00       2.33      43.58       5.58      49.16        1.18   731.41   0.933
  sub65                     52.69       0.00       0.00       2.02      44.59       4.84      49.43        1.36   813.03   0.938
  sub66                     52.69       0.00       0.00       5.66      36.34       9.62      45.96        2.14  1017.52   0.872
  sub67                     52.69       0.00       0.00       1.12      47.23       3.10      50.33        0.94   739.71   0.955
  sub68                     52.69       0.00       0.00       2.08      44.13       5.30      49.43        1.36   945.28   0.938
  sub69                     52.69       0.00       0.00       1.81      44.68       6.09      50.77        1.88  1090.11   0.964
  sub7                      52.69       0.00       0.00       1.28      46.71       3.47      50.18        0.17   126.68   0.952
  sub70                     52.69       0.00       0.00       6.03      34.62      11.88      46.50        1.34   571.81   0.883
  sub71                     52.69       0.00       0.00       1.18      47.15       3.03      50.19        1.31   793.07   0.952
  sub72                     52.69       0.00       0.00       1.05      47.61       2.64      50.24        0.69   375.88   0.954
  sub8                      52.69       0.00       0.00       1.29      46.70       3.46      50.15        0.32   229.05   0.952
  sub9                      52.69       0.00       0.00       1.29      46.70       3.45      50.15        0.24   170.56   0.952
  
  
  ******************
  Node Depth Summary
  ******************
  
  ---------------------------------------------------------------------------------
                                 Average  Maximum  Maximum  Time of Max    Reported
                                   Depth    Depth      HGL   Occurrence   Max Depth
  Node                 Type       Meters   Meters   Meters  days hr:min      Meters
  ---------------------------------------------------------------------------------
  HS02004478           JUNCTION     0.18     1.61    10.84     0  01:50        1.58
  HS02004479           JUNCTION     0.25     1.69    10.89     0  01:48        1.66
  HS02004480           JUNCTION     0.22     1.67    10.91     0  01:48        1.64
  HS02004770           JUNCTION     0.23     1.42    11.25     0  01:46        1.42
  HS02004777           JUNCTION     0.25     1.48    11.28     0  01:46        1.46
  HS02004785           JUNCTION     0.15     1.49    11.39     0  01:46        1.49
  HS02004788           JUNCTION     0.12     1.42    11.32     0  01:46        1.42
  HS02004792           JUNCTION     0.17     1.60    11.12     0  01:46        1.60
  HS02004799           JUNCTION     0.27     1.76    10.97     0  01:47        1.76
  HS02004802           JUNCTION     0.28     1.80    10.93     0  01:48        1.78
  HS02004807           JUNCTION     0.25     1.92    11.09     0  01:47        1.90
  HS02004817           JUNCTION     0.55     2.44    11.29     0  01:47        2.44
  HS02004824           JUNCTION     0.13     2.01    11.41     0  01:47        2.01
  HS02004830           JUNCTION     0.14     2.03    11.50     0  01:47        1.85
  HS02004837           JUNCTION     0.11     2.04    11.62     0  01:47        1.83
  HS02004842           JUNCTION     0.40     2.22    11.49     0  01:48        2.22
  HS02004848           JUNCTION     0.09     1.99    11.59     0  01:48        1.95
  HS02004852           JUNCTION     0.10     2.04    11.56     0  01:48        1.97
  HS02004856           JUNCTION     0.16     2.06    11.49     0  01:48        2.02
  HS02004862           JUNCTION     0.11     2.00    11.38     0  01:48        2.00
  HS02004870           JUNCTION     0.11     2.10    11.39     0  01:48        1.93
  HS02004876           JUNCTION     0.15     2.26    11.29     0  01:48        1.97
  HS02004881           JUNCTION     0.10     2.15    11.18     0  01:48        1.70
  HS02004901           JUNCTION     0.24     1.42    11.24     0  01:46        1.42
  WS02001211           JUNCTION     0.63     0.83     5.67     0  01:50        0.82
  WS02001212           JUNCTION     0.37     0.59     5.65     0  01:50        0.59
  WS02001213           JUNCTION     0.60     0.89     5.65     0  01:51        0.88
  WS02003059           JUNCTION     0.66     0.96     5.65     0  01:52        0.95
  WS02003060           JUNCTION     0.39     0.69     5.62     0  01:52        0.69
  WS02003066           JUNCTION     0.24     0.46     6.01     0  01:51        0.45
  WS02003067           JUNCTION     0.57     0.89     6.21     0  01:50        0.89
  WS02003069           JUNCTION     0.44     0.78     5.36     0  01:54        0.78
  WS02003072           JUNCTION     0.50     0.81     5.18     0  01:54        0.81
  WS02003073           JUNCTION     0.30     0.52     4.58     0  01:55        0.52
  WS02004138           JUNCTION     0.13     0.14     7.39     0  00:32        0.14
  WS02004139           JUNCTION     0.57     0.75     5.66     0  01:51        0.75
  WS02004401           JUNCTION     0.79     2.13     8.13     0  01:50        2.13
  WS02004402           JUNCTION     0.81     2.03     7.99     0  01:50        2.03
  WS02004403           JUNCTION     0.81     1.85     7.78     0  01:42        1.72
  WS02004404           JUNCTION     0.88     1.84     7.69     0  01:42        1.73
  WS02004405           JUNCTION     0.87     1.76     7.61     0  01:42        1.68
  WS02004406           JUNCTION     0.86     1.61     7.44     0  01:50        1.57
  WS02004407           JUNCTION     0.27     0.93     7.24     0  01:50        0.92
  WS02004409           JUNCTION     0.56     1.39     7.16     0  01:52        1.39
  WS02004410           JUNCTION     0.56     1.43     7.15     0  01:50        1.43
  WS02004411           JUNCTION     0.57     1.20     6.88     0  01:50        1.19
  WS02004412           JUNCTION     0.57     1.11     6.75     0  01:50        1.10
  WS02004413           JUNCTION     0.70     1.15     6.62     0  01:50        1.14
  WS02006109           JUNCTION     0.98     2.64     9.26     0  01:46        2.64
  WS02006110           JUNCTION     0.93     2.55     9.13     0  01:50        2.55
  WS02006111           JUNCTION     0.40     2.07     8.78     0  01:50        2.07
  WS02006112           JUNCTION     1.00     2.68     8.56     0  01:50        2.68
  WS02006113           JUNCTION     0.50     2.27     9.16     0  01:50        2.27
  WS02006115           JUNCTION     0.71     2.17     8.31     0  01:50        2.11
  WS02006116           JUNCTION     0.78     2.23     8.27     0  01:50        2.23
  WS02006228           JUNCTION     1.03     3.03     9.68     0  01:48        3.02
  WS02006229           JUNCTION     1.04     3.25     9.94     0  01:50        3.22
  WS02006230           JUNCTION     1.00     2.65     9.39     0  01:45        2.65
  WS02006231           JUNCTION     0.72     2.24     9.36     0  02:43        2.24
  WS02006232           JUNCTION     0.83     2.18     9.22     0  01:45        2.18
  WS02006234           JUNCTION     0.74     1.96     9.12     0  01:44        1.96
  WS02006235           JUNCTION     0.76     2.00     9.16     0  02:25        2.00
  WS02006238           JUNCTION     0.78     2.15     9.29     0  02:34        2.15
  WS02006239           JUNCTION     0.74     2.03     9.24     0  01:39        2.03
  WS02006240           JUNCTION     0.69     2.10     9.39     0  01:40        2.10
  WS02006242           JUNCTION     0.74     1.55     8.82     0  01:40        1.55
  WS02006243           JUNCTION     0.64     1.48     8.90     0  01:40        1.48
  WS02006245           JUNCTION     0.63     1.56     9.05     0  01:40        1.56
  WS02006247           JUNCTION     0.64     1.47     8.97     0  01:40        1.47
  WS02006248           JUNCTION     0.59     1.10     8.69     0  01:40        1.10
  WS02006249           JUNCTION     0.61     1.09     8.69     0  01:40        1.09
  WS02006251           JUNCTION     0.69     2.21     9.88     0  01:41        2.21
  WS02006252           JUNCTION     0.48     1.50     9.74     0  00:00        1.50
  WS02006253           JUNCTION     0.75     3.29    10.94     0  01:48        2.98
  WS02006256           JUNCTION     1.06     2.35     9.28     0  00:00        2.35
  WS02006280           JUNCTION     0.24     1.77    10.04     0  01:50        1.72
  WS02006284           JUNCTION     0.50     1.98    10.38     0  01:50        1.94
  WS02006287           JUNCTION     0.24     1.77    10.72     0  01:50        1.73
  WSF200               JUNCTION     0.24     0.52     5.76     0  01:52        0.52
  YS02001580           JUNCTION     0.06     1.05     9.59     0  01:46        0.77
  YS02001583           JUNCTION     0.10     1.14     9.64     0  01:47        1.14
  YS02001586           JUNCTION     0.16     1.13     9.30     0  01:46        1.13
  YS02001590           JUNCTION     0.24     1.40     9.26     0  01:46        1.40
  YS02001593           JUNCTION     0.18     1.44     9.31     0  01:46        1.28
  YS02001596           JUNCTION     0.24     1.76     9.18     0  01:46        1.65
  YS02001600           JUNCTION     0.29     1.87     9.00     0  01:46        1.87
  YS02001601           JUNCTION     0.47     2.06     8.90     0  01:46        2.06
  YS02001602           JUNCTION     0.39     1.87     8.77     0  01:46        1.87
  YS02001605           JUNCTION     0.37     1.78     8.68     0  01:46        1.78
  YS02001607           JUNCTION     0.37     1.66     8.51     0  01:50        1.66
  YS02001610           JUNCTION     0.41     1.68     8.48     0  01:46        1.68
  YS02001613           JUNCTION     0.37     1.70     8.54     0  01:46        1.66
  YS02001616           JUNCTION     0.31     1.61     8.52     0  01:46        1.61
  YS02001619           JUNCTION     0.28     1.61     8.54     0  01:46        1.61
  YS02001622           JUNCTION     0.27     1.62     8.52     0  01:46        1.62
  YS02001625           JUNCTION     0.53     1.78     8.38     0  01:47        1.78
  YS02001629           JUNCTION     0.38     1.85     8.40     0  01:47        1.85
  YS02001633           JUNCTION     0.46     2.08     8.53     0  01:50        2.08
  YS02001641           JUNCTION     0.44     1.96     8.40     0  01:49        1.93
  YS02001644           JUNCTION     0.44     1.92     8.35     0  01:49        1.92
  YS02001647           JUNCTION     0.24     1.81     8.42     0  01:49        1.72
  YS02001649           JUNCTION     0.28     2.05     8.44     0  01:49        1.89
  YS02001652           JUNCTION     0.18     2.16     8.76     0  01:50        2.16
  YS02001655           JUNCTION     0.14     2.20     9.05     0  01:50        2.20
  YS02001658           JUNCTION     0.10     2.30     9.44     0  01:50        2.30
  YS02001661           JUNCTION     0.13     1.63     9.04     0  01:50        1.35
  YS02001664           JUNCTION     0.05     0.76     8.69     0  01:50        0.49
  YS02001745           JUNCTION     0.05     2.05     9.56     0  01:49        1.03
  YS02001748           JUNCTION     0.09     2.22     9.29     0  01:49        1.33
  YS02001751           JUNCTION     0.12     2.20     9.08     0  01:49        1.28
  YS02001754           JUNCTION     0.16     2.20     8.81     0  01:49        1.53
  YS02001757           JUNCTION     0.31     2.21     8.47     0  01:49        1.89
  YS02001759           JUNCTION     0.26     2.20     8.56     0  01:49        1.88
  YS02001762           JUNCTION     0.25     2.15     8.55     0  01:49        1.87
  YS02001765           JUNCTION     0.23     2.10     8.55     0  01:49        1.85
  YS02001767           JUNCTION     0.23     2.03     8.52     0  01:49        1.84
  YS02001770           JUNCTION     0.24     1.95     8.45     0  01:49        1.95
  YS02001774           JUNCTION     0.30     2.01     8.43     0  01:50        1.96
  YS02001779           JUNCTION     0.14     1.68     8.37     0  01:48        1.68
  YS02001783           JUNCTION     0.20     1.28     7.42     0  01:48        1.22
  YS02001784           JUNCTION     0.22     1.16     7.23     0  01:48        1.13
  YS02001786           JUNCTION     0.18     0.99     7.02     0  01:48        0.99
  YS02001788           JUNCTION     0.13     0.63     6.61     0  01:48        0.62
  YS02001790           JUNCTION     0.16     0.72     6.37     0  01:52        0.72
  YS02001791           JUNCTION     0.10     0.44     5.91     0  01:52        0.43
  YS02001793           JUNCTION     0.05     0.27     5.10     0  02:03        0.26
  YS02001882           JUNCTION     0.26     1.72     8.43     0  01:47        1.64
  YS02001884           JUNCTION     0.34     1.92     8.54     0  01:50        1.92
  YS02001887           JUNCTION     0.42     1.93     8.47     0  01:50        1.93
  YS02001890           JUNCTION     0.45     1.81     8.32     0  01:47        1.81
  YS02001895           JUNCTION     0.23     1.62     8.37     0  01:47        1.56
  YS02001898           JUNCTION     0.23     1.64     8.37     0  01:48        1.57
  YS02001901           JUNCTION     0.34     1.78     8.39     0  01:48        1.67
  YS02001904           JUNCTION     0.32     1.74     8.37     0  01:48        1.64
  YS02001907           JUNCTION     0.63     1.96     8.25     0  01:48        1.96
  YS02001910           JUNCTION     0.44     2.03     8.54     0  01:48        1.94
  YS02001915           JUNCTION     0.26     2.00     8.72     0  01:48        2.00
  YS02001918           JUNCTION     0.13     1.81     8.88     0  01:48        1.81
  YS02001920           JUNCTION     0.21     2.11     9.11     0  01:48        2.05
  YS02001923           JUNCTION     0.10     2.03     9.29     0  01:48        1.98
  YS02001926           JUNCTION     0.13     1.90     9.35     0  01:48        1.90
  YS02001929           JUNCTION     0.07     1.78     9.47     0  01:48        1.66
  YS02006553           JUNCTION     0.64     2.06     8.34     0  01:48        2.04
  YS02006556           JUNCTION     0.61     2.12     8.43     0  01:50        2.12
  YS02006558           JUNCTION     0.65     2.45     8.71     0  01:50        2.45
  YS02006561           JUNCTION     0.12     0.97     7.63     0  01:50        0.89
  YS02163301           JUNCTION     0.40     1.92     8.44     0  01:49        1.91
  YS02163601           JUNCTION     0.50     2.08     8.48     0  01:50        2.08
  YS02164001           JUNCTION     0.43     2.05     8.51     0  01:50        2.05
  YSB1154              JUNCTION     0.38     2.10    11.16     0  01:50        2.10
  YSB1171              JUNCTION     0.52     1.95    10.85     0  01:46        1.95
  YSB1174              JUNCTION     0.34     1.95    11.06     0  01:50        1.95
  YSB6556              JUNCTION     0.28     1.77    10.94     0  01:52        1.77
  CC-1                 OUTFALL      0.00     0.00     0.00     0  00:00        0.00
  CC-2                 OUTFALL      0.00     0.00     0.00     0  00:00        0.00
  JK-1                 OUTFALL      0.00     0.00     0.00     0  00:00        0.00
  JK-2                 OUTFALL      0.00     0.00     0.00     0  00:00        0.00
  WSC                  OUTFALL      0.30     0.52     1.19     0  01:55        0.51
  CC-storage           STORAGE      0.80     1.55     7.05     0  02:17        1.55
  JK-storage           STORAGE      1.29     4.23     5.03     0  02:03        4.18
  XR-storage           STORAGE      7.90     9.26     7.26     0  08:00        9.26
  
  
  *******************
  Node Inflow Summary
  *******************
  
  -------------------------------------------------------------------------------------------------
                                  Maximum  Maximum                  Lateral       Total        Flow
                                  Lateral    Total  Time of Max      Inflow      Inflow     Balance
                                   Inflow   Inflow   Occurrence      Volume      Volume       Error
  Node                 Type           LPS      LPS  days hr:min    10^6 ltr    10^6 ltr     Percent
  -------------------------------------------------------------------------------------------------
  HS02004478           JUNCTION      0.00  2330.21     0  01:50           0         7.5      -0.008
  HS02004479           JUNCTION      0.00   546.00     0  01:48           0       0.714       0.154
  HS02004480           JUNCTION      0.00  2185.75     0  01:47           0        5.59       0.054
  HS02004770           JUNCTION   1360.90  1360.90     0  01:51        2.18         2.4       0.126
  HS02004777           JUNCTION      0.03   865.43     0  01:46    0.000864        1.66       0.309
  HS02004785           JUNCTION      0.15   863.53     0  01:46     0.00432        1.65       0.003
  HS02004788           JUNCTION    497.54   807.32     0  02:08       0.852         2.5      -0.003
  HS02004792           JUNCTION   1623.20  2404.54     0  01:51        2.81        5.31       0.007
  HS02004799           JUNCTION    335.22  1758.07     0  01:47       0.477        4.99       0.055
  HS02004802           JUNCTION      0.00  1171.57     0  01:51           0        1.98       0.202
  HS02004807           JUNCTION    424.85  1171.32     0  01:51       0.584        2.02       0.197
  HS02004817           JUNCTION      0.60   760.87     0  01:52      0.0173        1.49       1.115
  HS02004824           JUNCTION    502.45   774.26     0  01:47        1.03        1.65       0.023
  HS02004830           JUNCTION      0.15   772.09     0  01:47     0.00432       0.786       0.148
  HS02004837           JUNCTION    384.00  1011.53     0  01:47       0.737        1.11       0.015
  HS02004842           JUNCTION      0.00  1049.20     0  01:47           0       0.696       1.888
  HS02004848           JUNCTION    451.44  1302.45     0  01:47       0.991        1.52      -0.013
  HS02004852           JUNCTION      0.00  1287.38     0  01:48           0        1.38      -0.010
  HS02004856           JUNCTION    170.56  1438.88     0  01:48       0.241        1.62       0.084
  HS02004862           JUNCTION    212.57  1493.45     0  01:48       0.422        2.04      -0.015
  HS02004870           JUNCTION    229.05  1702.74     0  01:48        0.32        2.36      -0.003
  HS02004876           JUNCTION    219.53  1725.49     0  01:48       0.331        2.69      -0.010
  HS02004881           JUNCTION    126.68  1844.92     0  01:48       0.169        2.86      -0.036
  HS02004901           JUNCTION    337.19   540.47     0  01:52       0.488       0.725       0.252
  WS02001211           JUNCTION      7.35   265.75     0  01:48       0.212        5.44       0.612
  WS02001212           JUNCTION      0.00   232.31     0  01:51           0        5.41       0.290
  WS02001213           JUNCTION      0.00   243.72     0  01:51           0         5.4       0.332
  WS02003059           JUNCTION      0.00   229.06     0  01:53           0         5.4       0.596
  WS02003060           JUNCTION     16.53  1536.38     0  01:52       0.476        15.8       0.094
  WS02003066           JUNCTION      0.00  1303.22     0  01:51           0        9.96       0.017
  WS02003067           JUNCTION      0.00  1299.01     0  01:50           0        9.97       0.045
  WS02003069           JUNCTION      0.32  1511.53     0  01:54     0.00922        15.8       0.101
  WS02003072           JUNCTION      0.00  1506.48     0  01:53           0        15.8       0.135
  WS02003073           JUNCTION      1.82  1508.71     0  01:54      0.0524        15.8       0.140
  WS02004138           JUNCTION      0.00   380.00     0  00:00           0        5.25       0.055
  WS02004139           JUNCTION      0.32   190.32     0  00:32     0.00924        5.26       0.509
  WS02004401           JUNCTION      0.00  1319.20     0  01:50           0        10.1       0.107
  WS02004402           JUNCTION      0.00  1322.57     0  01:50           0        10.1       0.109
  WS02004403           JUNCTION      0.00  1322.89     0  01:50           0        10.1       0.104
  WS02004404           JUNCTION      0.16  1319.39     0  01:50     0.00467          10       0.088
  WS02004405           JUNCTION      0.04  1318.49     0  01:50      0.0011          10       0.126
  WS02004406           JUNCTION      0.00  1323.42     0  01:50           0          10       0.216
  WS02004407           JUNCTION      0.00  1325.30     0  01:50           0          10       0.017
  WS02004409           JUNCTION      0.00  1298.25     0  01:50           0          10       0.035
  WS02004410           JUNCTION      0.00  1298.73     0  01:50           0          10       0.053
  WS02004411           JUNCTION      0.00  1298.46     0  01:50           0          10       0.064
  WS02004412           JUNCTION      0.00  1298.52     0  01:50           0        9.99       0.084
  WS02004413           JUNCTION      0.00  1298.45     0  01:50           0        9.98       0.147
  WS02006109           JUNCTION      1.23  1287.91     0  01:50      0.0354        9.92       0.098
  WS02006110           JUNCTION      0.00  1123.52     0  02:08           0        9.72       0.084
  WS02006111           JUNCTION      0.00  1123.42     0  02:07           0        9.71       0.003
  WS02006112           JUNCTION    273.27  1298.98     0  01:50       0.401        10.1       0.181
  WS02006113           JUNCTION      0.00  1123.79     0  02:08           0        9.71       0.028
  WS02006115           JUNCTION      0.00  1298.86     0  01:50           0        10.1       0.069
  WS02006116           JUNCTION      0.00  1314.27     0  01:50           0        10.1       0.036
  WS02006228           JUNCTION      0.00  1292.07     0  01:50           0        9.89       0.038
  WS02006229           JUNCTION      0.00  2303.47     0  01:50           0        11.8       0.070
  WS02006230           JUNCTION     10.28  1026.50     0  01:50       0.296        6.31       0.124
  WS02006231           JUNCTION      0.00   563.22     0  03:55           0        5.23      -0.069
  WS02006232           JUNCTION      0.00   562.32     0  04:00           0        5.22       0.117
  WS02006234           JUNCTION      0.00   558.60     0  04:00           0         5.2      -0.196
  WS02006235           JUNCTION      0.00   552.31     0  04:15           0        5.23       0.162
  WS02006238           JUNCTION      0.00   427.89     0  04:01           0        4.96      -0.177
  WS02006239           JUNCTION      0.00   428.53     0  04:01           0        4.92      -0.150
  WS02006240           JUNCTION      0.00   427.13     0  04:01           0         4.9      -0.004
  WS02006242           JUNCTION      0.00   427.36     0  04:00           0        4.89       0.028
  WS02006243           JUNCTION      0.00   427.34     0  04:00           0        4.57      -0.165
  WS02006245           JUNCTION      0.00   427.23     0  04:00           0        4.58       0.252
  WS02006247           JUNCTION      0.00   427.68     0  04:00           0        4.58       0.012
  WS02006248           JUNCTION      0.00   426.09     0  04:00           0         4.8      -0.038
  WS02006249           JUNCTION      0.00  1358.22     0  01:49           0        7.72       0.124
  WS02006251           JUNCTION      0.08  1636.72     0  01:49     0.00222        7.86       0.002
  WS02006252           JUNCTION      0.00   626.94     0  01:49           0        5.24      -0.280
  WS02006253           JUNCTION     34.06  1635.03     0  01:49      0.0409        2.97       0.024
  WS02006256           JUNCTION      0.00   300.00     0  00:00           0       0.916      -2.199
  WS02006280           JUNCTION      0.00  2301.69     0  01:51           0        7.49       0.012
  WS02006284           JUNCTION      0.10  2305.43     0  01:50     0.00275        7.49       0.005
  WS02006287           JUNCTION      0.00  2319.28     0  01:50           0        7.49       0.012
  WSF200               JUNCTION      0.00  1302.48     0  01:51           0        9.96       0.008
  YS02001580           JUNCTION      0.00   182.01     0  01:46           0     0.00425      -7.911
  YS02001583           JUNCTION      0.00   275.28     0  01:46           0      0.0146     -11.469
  YS02001586           JUNCTION    571.81   571.84     0  01:53        1.34        1.35       0.132
  YS02001590           JUNCTION      0.00   320.26     0  01:50           0        1.14      -0.051
  YS02001593           JUNCTION      0.00   320.25     0  01:50           0        1.14       0.012
  YS02001596           JUNCTION      0.00   318.08     0  01:52           0        1.14       0.004
  YS02001600           JUNCTION      0.00   318.07     0  02:07           0        1.14       0.005
  YS02001601           JUNCTION   1090.11  1407.92     0  01:52        1.88        3.02       0.030
  YS02001602           JUNCTION      0.00   577.25     0  01:46           0        1.99       0.022
  YS02001605           JUNCTION      0.00   577.48     0  01:46           0         1.9       0.029
  YS02001607           JUNCTION      0.00   577.14     0  01:46           0         1.9       0.092
  YS02001610           JUNCTION      0.00   540.73     0  01:46           0        1.96       0.116
  YS02001613           JUNCTION      0.00   519.11     0  01:46           0         1.6       0.098
  YS02001616           JUNCTION      0.00   508.67     0  01:46           0         1.6       0.011
  YS02001619           JUNCTION   1017.52  1017.52     0  01:53        2.14        3.68      -0.008
  YS02001622           JUNCTION      0.00   922.59     0  01:47           0        3.61      -0.009
  YS02001625           JUNCTION      0.00  1121.35     0  01:53           0        3.69       0.241
  YS02001629           JUNCTION      0.00   887.08     0  01:47           0        3.02      -0.007
  YS02001633           JUNCTION    813.23  1420.27     0  01:48        1.37        4.28       0.081
  YS02001641           JUNCTION      0.00  1419.07     0  01:48           0        4.18       0.068
  YS02001644           JUNCTION    731.45  1942.68     0  01:48        1.18        5.35       0.063
  YS02001647           JUNCTION      0.00  1941.99     0  01:48           0        5.22       0.008
  YS02001649           JUNCTION      0.00  2213.32     0  01:48           0         6.3       0.004
  YS02001652           JUNCTION      0.00   913.00     0  01:51           0        1.07      -0.175
  YS02001655           JUNCTION      0.15   912.22     0  01:51     0.00443        1.07       0.064
  YS02001658           JUNCTION      0.00   912.13     0  01:51           0        1.07      -0.023
  YS02001661           JUNCTION      0.00   888.89     0  01:50           0        1.07       0.014
  YS02001664           JUNCTION    717.15   717.15     0  01:51        1.07        1.07      -0.015
  YS02001745           JUNCTION    480.62   716.60     0  01:49       0.654       0.656       0.258
  YS02001748           JUNCTION      0.04   844.61     0  01:49      0.0013       0.661      -0.428
  YS02001751           JUNCTION      0.01   656.99     0  01:50    0.000317        0.67       0.066
  YS02001754           JUNCTION      0.26   651.05     0  01:50     0.00749       0.683      -0.244
  YS02001757           JUNCTION      0.00  3524.20     0  01:50           0        9.22       0.063
  YS02001759           JUNCTION    662.61  1491.62     0  01:49       0.901        2.25      -0.003
  YS02001762           JUNCTION      0.00   840.86     0  01:49           0        1.35       0.003
  YS02001765           JUNCTION      0.00   846.89     0  01:49           0        1.35       0.040
  YS02001767           JUNCTION      0.54   852.55     0  01:49      0.0154        1.35      -0.037
  YS02001770           JUNCTION    923.19   923.19     0  01:51        1.38        1.42      -0.006
  YS02001774           JUNCTION      0.00   574.62     0  01:48           0       0.111       1.063
  YS02001779           JUNCTION      0.01   564.38     0  01:48    0.000144      0.0672      -2.124
  YS02001783           JUNCTION      0.00  1169.55     0  01:50           0        3.47       0.005
  YS02001784           JUNCTION      1.06  1169.26     0  01:50      0.0305         3.5       0.014
  YS02001786           JUNCTION      0.06  1169.67     0  01:50     0.00162         3.5       0.021
  YS02001788           JUNCTION      0.07  1170.10     0  01:50     0.00204         3.5       0.008
  YS02001790           JUNCTION      0.15  1183.61     0  01:48     0.00446         3.5       0.021
  YS02001791           JUNCTION      0.00  1288.02     0  01:53           0         3.5      -0.022
  YS02001793           JUNCTION      0.00  1246.48     0  01:49           0         3.5       0.007
  YS02001882           JUNCTION      0.00   111.25     0  01:47           0      0.0125       5.937
  YS02001884           JUNCTION      0.00   143.85     0  01:47           0       0.048       5.446
  YS02001887           JUNCTION    740.16   756.88     0  01:50       0.949       0.982       0.475
  YS02001890           JUNCTION      0.00   748.61     0  01:50           0       0.941       0.558
  YS02001895           JUNCTION      0.00   613.83     0  01:48           0       0.885       0.195
  YS02001898           JUNCTION      0.00   613.90     0  01:47           0       0.884       0.041
  YS02001901           JUNCTION      0.00   614.41     0  01:47           0       0.886       0.375
  YS02001904           JUNCTION      0.00   614.17     0  01:48           0       0.891       0.345
  YS02001907           JUNCTION      0.00  1737.00     0  01:49           0        2.97       0.609
  YS02001910           JUNCTION      0.00  1200.76     0  01:49           0        2.09       0.350
  YS02001915           JUNCTION    793.09  1201.20     0  01:49        1.31        2.14       0.058
  YS02001918           JUNCTION      0.00   774.27     0  01:48           0        0.86      -0.014
  YS02001920           JUNCTION      2.87   733.82     0  01:48      0.0827       0.835       0.044
  YS02001923           JUNCTION      0.04  1018.72     0  01:48     0.00109       0.735      -0.125
  YS02001926           JUNCTION      0.05  1277.40     0  01:48      0.0015       0.714      -0.359
  YS02001929           JUNCTION    375.88  1111.97     0  01:48       0.691       0.698      -0.269
  YS02006553           JUNCTION      0.00   805.60     0  02:07           0        2.13       0.566
  YS02006556           JUNCTION      0.00   807.35     0  02:07           0        2.14       0.373
  YS02006558           JUNCTION    946.16  1186.99     0  01:47        1.39         3.5       0.105
  YS02006561           JUNCTION      0.00  1193.06     0  01:47           0        3.47      -0.004
  YS02163301           JUNCTION      0.00   864.58     0  01:47           0        3.01       0.054
  YS02163601           JUNCTION      0.11  1419.32     0  01:48     0.00317        4.17       0.116
  YS02164001           JUNCTION      0.00  1418.24     0  01:48           0        4.17       0.056
  YSB1154              JUNCTION    380.88   380.88     0  01:51       0.571       0.572       0.255
  YSB1171              JUNCTION      0.00   865.57     0  01:51           0        1.06       0.612
  YSB1174              JUNCTION    346.89   346.89     0  01:50       0.434       0.435       0.306
  YSB6556              JUNCTION      0.00   381.05     0  01:51           0       0.572       0.232
  CC-1                 OUTFALL       0.00   683.00     0  00:00           0        3.06       0.000
  CC-2                 OUTFALL       0.00   683.00     0  00:00           0        1.83       0.000
  JK-1                 OUTFALL       0.00  1000.00     0  00:00           0        1.39       0.000
  JK-2                 OUTFALL       0.00  1000.00     0  00:00           0        1.32       0.000
  WSC                  OUTFALL       0.00  1508.82     0  01:55           0        15.8       0.000
  CC-storage           STORAGE       0.00  3529.04     0  01:50           0        11.4      -0.275
  JK-storage           STORAGE       0.00  1247.06     0  01:49           0        3.65      -0.458
  XR-storage           STORAGE     200.00   200.00     0  00:00        5.76        6.36       0.001
  
  
  **********************
  Node Surcharge Summary
  **********************
  
  Surcharging occurs when water rises above the top of the highest conduit.
  ---------------------------------------------------------------------
                                               Max. Height   Min. Depth
                                   Hours       Above Crown    Below Rim
  Node                 Type      Surcharged         Meters       Meters
  ---------------------------------------------------------------------
  HS02004478           JUNCTION        0.40          0.688        0.252
  HS02004479           JUNCTION        0.53          0.889        0.161
  HS02004480           JUNCTION        0.56          0.959        0.141
  HS02004770           JUNCTION        0.48          0.720        0.000
  HS02004777           JUNCTION        0.48          0.780        0.000
  HS02004785           JUNCTION        0.43          0.790        0.000
  HS02004788           JUNCTION        0.42          0.720        0.000
  HS02004792           JUNCTION        0.53          0.900        0.000
  HS02004799           JUNCTION        0.62          1.060        0.000
  HS02004802           JUNCTION        0.56          1.093        0.117
  HS02004807           JUNCTION        0.55          1.220        0.000
  HS02004817           JUNCTION        1.03          1.740        0.000
  HS02004824           JUNCTION        0.43          1.310        0.000
  HS02004830           JUNCTION        0.40          1.330        0.000
  HS02004837           JUNCTION        0.36          1.340        0.000
  HS02004842           JUNCTION        0.48          1.520        0.000
  HS02004848           JUNCTION        0.34          1.291        0.079
  HS02004852           JUNCTION        0.37          1.344        0.076
  HS02004856           JUNCTION        0.35          1.295        0.005
  HS02004862           JUNCTION        0.38          1.300        0.000
  HS02004870           JUNCTION        0.40          1.400        0.000
  HS02004876           JUNCTION        0.47          1.560        0.000
  HS02004881           JUNCTION        0.45          1.450        0.000
  HS02004901           JUNCTION        0.49          0.720        0.000
  WS02004401           JUNCTION        1.53          1.130        0.530
  WS02004402           JUNCTION        1.58          1.028        0.712
  WS02004403           JUNCTION        1.58          0.846        1.184
  WS02004404           JUNCTION        1.69          0.844        1.936
  WS02004405           JUNCTION        1.65          0.760        2.040
  WS02004406           JUNCTION        1.61          0.607        1.843
  WS02004409           JUNCTION        0.83          0.393        1.967
  WS02004410           JUNCTION        0.74          0.431        2.109
  WS02004411           JUNCTION        0.71          0.204        2.326
  WS02004412           JUNCTION        0.65          0.109        2.201
  WS02004413           JUNCTION        1.10          0.147        2.053
  WS02006109           JUNCTION        2.88          1.820        0.000
  WS02006110           JUNCTION        1.92          1.637        0.213
  WS02006111           JUNCTION        0.99          1.259        0.611
  WS02006112           JUNCTION        2.21          1.680        0.000
  WS02006113           JUNCTION        1.03          1.471        0.459
  WS02006115           JUNCTION        1.35          1.162        1.088
  WS02006116           JUNCTION        1.38          1.175        1.115
  WS02006228           JUNCTION        2.87          2.200        0.000
  WS02006229           JUNCTION        0.74          1.068        0.002
  WS02006230           JUNCTION        1.79          1.570        0.000
  WS02006231           JUNCTION        1.97          1.530        0.000
  WS02006232           JUNCTION        2.89          1.480        0.000
  WS02006234           JUNCTION        2.71          1.240        0.000
  WS02006235           JUNCTION        2.76          1.290        0.000
  WS02006238           JUNCTION        2.82          1.430        0.000
  WS02006239           JUNCTION        2.76          1.290        0.000
  WS02006240           JUNCTION        2.77          1.390        0.000
  WS02006242           JUNCTION        2.93          0.820        0.000
  WS02006243           JUNCTION        2.78          0.770        0.000
  WS02006245           JUNCTION        2.78          0.850        0.000
  WS02006247           JUNCTION        2.80          0.760        0.000
  WS02006248           JUNCTION        2.76          0.380        0.000
  WS02006249           JUNCTION        2.79          0.390        0.000
  WS02006251           JUNCTION        2.17          1.180        0.000
  WS02006252           JUNCTION        3.33          1.100        0.000
  WS02006253           JUNCTION        2.26          2.254        0.226
  WS02006256           JUNCTION        7.65          2.050        0.000
  WS02006280           JUNCTION        0.65          0.723        0.057
  WS02006284           JUNCTION        0.57          0.701        0.099
  WS02006287           JUNCTION        0.50          0.767        0.123
  YS02001580           JUNCTION        0.49          0.450        0.000
  YS02001583           JUNCTION        0.50          0.500        0.000
  YS02001586           JUNCTION        0.62          0.510        0.000
  YS02001590           JUNCTION        0.69          0.750        0.000
  YS02001593           JUNCTION        0.69          0.824        0.016
  YS02001596           JUNCTION        0.78          1.033        0.037
  YS02001600           JUNCTION        0.90          1.190        0.000
  YS02001601           JUNCTION        1.26          1.440        0.000
  YS02001602           JUNCTION        1.13          1.270        0.000
  YS02001605           JUNCTION        1.07          1.180        0.000
  YS02001607           JUNCTION        0.66          0.660        0.020
  YS02001610           JUNCTION        0.68          0.680        0.000
  YS02001613           JUNCTION        0.65          0.700        0.000
  YS02001616           JUNCTION        0.61          0.610        0.000
  YS02001619           JUNCTION        0.60          0.610        0.000
  YS02001622           JUNCTION        0.60          0.620        0.000
  YS02001625           JUNCTION        0.76          0.780        0.000
  YS02001629           JUNCTION        0.56          0.470        0.000
  YS02001633           JUNCTION        0.77          1.060        0.000
  YS02001641           JUNCTION        0.73          0.959        0.141
  YS02001644           JUNCTION        0.70          0.920        0.000
  YS02001647           JUNCTION        0.52          0.811        0.089
  YS02001649           JUNCTION        0.62          1.050        0.000
  YS02001652           JUNCTION        0.45          1.130        0.000
  YS02001655           JUNCTION        0.30          1.200        0.000
  YS02001658           JUNCTION        0.13          1.300        0.000
  YS02001661           JUNCTION        0.01          0.564        0.826
  YS02001745           JUNCTION        0.01          1.045        0.305
  YS02001748           JUNCTION        0.04          1.138        0.052
  YS02001751           JUNCTION        0.19          1.200        0.000
  YS02001754           JUNCTION        0.34          1.150        0.000
  YS02001757           JUNCTION        0.68          1.210        0.000
  YS02001759           JUNCTION        0.59          1.201        0.009
  YS02001762           JUNCTION        0.56          1.150        0.000
  YS02001765           JUNCTION        0.51          1.100        0.000
  YS02001767           JUNCTION        0.49          1.030        0.000
  YS02001770           JUNCTION        0.45          0.920        0.000
  YS02001774           JUNCTION        0.54          1.007        0.043
  YS02001779           JUNCTION        0.34          0.680        0.000
  YS02001783           JUNCTION        0.46          0.478        1.122
  YS02001784           JUNCTION        0.44          0.363        1.127
  YS02001786           JUNCTION        0.34          0.191        1.239
  YS02001882           JUNCTION        0.41          0.717        0.113
  YS02001884           JUNCTION        0.42          0.861        0.009
  YS02001887           JUNCTION        0.45          0.879        0.071
  YS02001890           JUNCTION        0.46          0.760        0.000
  YS02001895           JUNCTION        0.40          0.624        0.126
  YS02001898           JUNCTION        0.39          0.607        0.133
  YS02001901           JUNCTION        0.44          0.783        0.087
  YS02001904           JUNCTION        0.43          0.744        0.106
  YS02001907           JUNCTION        0.62          0.950        0.000
  YS02001910           JUNCTION        0.49          1.030        0.070
  YS02001915           JUNCTION        0.41          1.000        0.000
  YS02001918           JUNCTION        0.33          0.810        0.000
  YS02001920           JUNCTION        0.35          1.107        0.033
  YS02001923           JUNCTION        0.02          0.820        0.000
  YS02001926           JUNCTION        0.04          0.900        0.000
  YS02001929           JUNCTION        0.01          0.780        0.000
  YS02006553           JUNCTION        0.64          1.058        0.132
  YS02006556           JUNCTION        0.55          1.078        0.272
  YS02006558           JUNCTION        0.55          1.347        0.053
  YS02006561           JUNCTION        0.30          0.174        0.976
  YS02163301           JUNCTION        0.76          0.925        0.105
  YS02163601           JUNCTION        0.80          1.080        0.000
  YS02164001           JUNCTION        0.73          1.048        0.052
  YSB1154              JUNCTION        0.72          1.400        0.000
  YSB1171              JUNCTION        0.73          1.100        0.000
  YSB1174              JUNCTION        0.65          1.250        0.000
  YSB6556              JUNCTION        0.60          1.068        0.032
  
  
  *********************
  Node Flooding Summary
  *********************
  
  Flooding refers to all water that overflows a node, whether it ponds or not.
  --------------------------------------------------------------------------
                                                             Total   Maximum
                                 Maximum   Time of Max       Flood    Ponded
                        Hours       Rate    Occurrence      Volume     Depth
  Node                 Flooded       LPS   days hr:min    10^6 ltr    Meters
  --------------------------------------------------------------------------
  HS02004770              0.28    927.88      0  01:50       0.499     0.000
  HS02004777              0.01    140.08      0  01:46       0.003     0.000
  HS02004785              0.01    360.77      0  01:46       0.002     0.000
  HS02004788              0.01    271.88      0  01:46       0.003     0.000
  HS02004792              0.30   1262.19      0  01:51       0.793     0.000
  HS02004799              0.14    258.77      0  01:49       0.059     0.000
  HS02004807              0.01     22.23      0  01:48       0.000     0.000
  HS02004817              0.01     28.41      0  01:47       0.000     0.000
  HS02004824              0.01     26.14      0  01:47       0.000     0.000
  HS02004830              0.01      7.33      0  01:47       0.000     0.000
  HS02004837              0.01    296.74      0  01:47       0.000     0.000
  HS02004842              0.01     40.94      0  01:48       0.000     0.000
  HS02004862              0.01    194.32      0  01:48       0.003     0.000
  HS02004870              0.01    140.65      0  01:48       0.001     0.000
  HS02004876              0.01     64.70      0  01:48       0.000     0.000
  HS02004881              0.01    836.60      0  01:48       0.004     0.000
  HS02004901              0.36    540.46      0  01:52       0.506     0.000
  WS02006109              0.35    272.64      0  01:50       0.196     0.000
  WS02006112              0.01      0.55      0  01:50       0.000     0.000
  WS02006228              0.01     12.20      0  01:50       0.000     0.000
  WS02006230              0.58    573.67      0  01:50       0.794     0.000
  WS02006231              0.01      0.60      0  02:43       0.000     0.000
  WS02006232              0.13      2.14      0  02:07       0.000     0.000
  WS02006234              0.64    128.31      0  02:20       0.195     0.000
  WS02006235              0.01     12.11      0  02:25       0.000     0.000
  WS02006238              0.01      1.79      0  02:43       0.000     0.000
  WS02006239              0.01     78.38      0  01:39       0.000     0.000
  WS02006240              0.01     96.79      0  01:40       0.000     0.000
  WS02006242              0.72    229.01      0  01:40       0.318     0.000
  WS02006243              0.01    212.64      0  01:40       0.000     0.000
  WS02006245              0.01     89.13      0  01:40       0.000     0.000
  WS02006247              0.01    187.69      0  01:40       0.000     0.000
  WS02006248              1.02    346.36      0  01:46       1.018     0.000
  WS02006249              1.91   1292.71      0  01:49       3.707     0.000
  WS02006251              0.01    272.30      0  01:41       0.001     0.000
  WS02006252              0.39    623.18      0  01:49       0.372     0.000
  WS02006256              0.84    293.98      0  02:15       0.490     0.000
  YS02001580              0.01    135.13      0  01:46       0.001     0.000
  YS02001583              0.01    194.30      0  01:47       0.001     0.000
  YS02001586              0.38    254.38      0  01:53       0.200     0.000
  YS02001590              0.01     23.15      0  01:46       0.000     0.000
  YS02001600              0.01      4.54      0  01:46       0.000     0.000
  YS02001601              0.56   1009.96      0  01:52       1.029     0.000
  YS02001602              0.46     62.01      0  01:52       0.094     0.000
  YS02001605              0.01      4.01      0  01:46       0.000     0.000
  YS02001610              0.41    498.18      0  01:53       0.423     0.000
  YS02001613              0.01     27.25      0  01:46       0.000     0.000
  YS02001616              0.01     55.46      0  01:46       0.000     0.000
  YS02001619              0.01     88.16      0  01:47       0.000     0.000
  YS02001622              0.01    212.51      0  01:46       0.001     0.000
  YS02001625              0.38   1121.33      0  01:53       0.759     0.000
  YS02001629              0.08    257.79      0  01:47       0.035     0.000
  YS02001633              0.01      1.47      0  01:50       0.000     0.000
  YS02001644              0.11    617.25      0  01:50       0.120     0.000
  YS02001649              0.01     44.36      0  01:49       0.000     0.000
  YS02001652              0.01     22.32      0  01:50       0.000     0.000
  YS02001655              0.01     58.55      0  01:50       0.000     0.000
  YS02001658              0.01     45.13      0  01:50       0.000     0.000
  YS02001751              0.01     38.51      0  01:49       0.000     0.000
  YS02001754              0.01     69.88      0  01:49       0.000     0.000
  YS02001757              0.01     43.58      0  01:49       0.000     0.000
  YS02001762              0.01     25.86      0  01:49       0.000     0.000
  YS02001765              0.01     20.57      0  01:49       0.000     0.000
  YS02001767              0.01     11.65      0  01:49       0.000     0.000
  YS02001770              0.01     73.28      0  01:50       0.001     0.000
  YS02001779              0.10    535.64      0  01:48       0.050     0.000
  YS02001890              0.11    209.73      0  01:50       0.051     0.000
  YS02001907              0.28   1526.78      0  01:50       0.829     0.000
  YS02001915              0.01     15.64      0  01:48       0.000     0.000
  YS02001918              0.01    295.01      0  01:48       0.004     0.000
  YS02001923              0.01    193.85      0  01:48       0.001     0.000
  YS02001926              0.01    462.40      0  01:48       0.004     0.000
  YS02001929              0.01    875.47      0  01:48       0.003     0.000
  YS02163601              0.01      0.24      0  01:50       0.000     0.000
  YSB1154                 0.01      0.59      0  01:50       0.000     0.000
  YSB1171                 0.22    865.26      0  01:51       0.387     0.000
  YSB1174                 0.01      0.32      0  01:50       0.000     0.000
  
  
  **********************
  Storage Volume Summary
  **********************
  
  --------------------------------------------------------------------------------------------------
                         Average     Avg  Evap Exfil       Maximum     Max    Time of Max    Maximum
                          Volume    Pcnt  Pcnt  Pcnt        Volume    Pcnt     Occurrence    Outflow
  Storage Unit           1000 m3    Full  Loss  Loss       1000 m3    Full    days hr:min        LPS
  --------------------------------------------------------------------------------------------------
  CC-storage               2.241      35     0     0         4.322      67       0  02:17    1783.53
  JK-storage               0.065      22     0     0         0.213      73       0  02:03    2300.00
  XR-storage               0.948      66     0     0         1.111      77       0  08:00     380.00
  
  
  ***********************
  Outfall Loading Summary
  ***********************
  
  -----------------------------------------------------------
                         Flow       Avg       Max       Total
                         Freq      Flow      Flow      Volume
  Outfall Node           Pcnt       LPS       LPS    10^6 ltr
  -----------------------------------------------------------
  CC-1                  18.86    683.00    683.00       3.059
  CC-2                  11.41    683.00    683.00       1.835
  JK-1                   5.52   1000.00   1000.00       1.386
  JK-2                   5.48   1000.00   1000.00       1.323
  WSC                   99.96    621.91   1508.82      15.766
  -----------------------------------------------------------
  System                28.24   3987.91   4845.42      23.369
  
  
  ********************
  Link Flow Summary
  ********************
  
  -----------------------------------------------------------------------------
                                 Maximum  Time of Max   Maximum    Max/    Max/
                                  |Flow|   Occurrence   |Veloc|    Full    Full
  Link                 Type          LPS  days hr:min     m/sec    Flow   Depth
  -----------------------------------------------------------------------------
  1                    CONDUIT   1508.82     0  01:55      3.70    0.53    0.52
  HS02004478WS02006287 CONDUIT   2319.28     0  01:50      2.58    0.65    1.00
  HS02004479HS02004480 CONDUIT    542.91     0  01:48      0.78    0.52    1.00
  HS02004480HS02004478 CONDUIT   2191.10     0  01:47      3.13    9.23    1.00
  HS02004770HS02004777 CONDUIT    865.40     0  01:46      1.24    1.58    1.00
  HS02004777HS02004785 CONDUIT    863.38     0  01:46      1.37    1.06    1.00
  HS02004785HS02004788 CONDUIT    617.26     0  02:08      1.34    4.65    1.00
  HS02004788HS02004792 CONDUIT    808.02     0  02:08      1.43    0.53    1.00
  HS02004792HS02004799 CONDUIT   1550.81     0  01:47      2.22    0.95    1.00
  HS02004799HS02004480 CONDUIT   1753.45     0  01:47      2.50    2.22    1.00
  HS02004802HS02004478 CONDUIT   1172.36     0  01:51      1.67    1.03    1.00
  HS02004807HS02004802 CONDUIT   1171.57     0  01:51      1.67    2.24    1.00
  HS02004817HS02004807 CONDUIT    761.15     0  01:52      1.09    0.45    1.00
  HS02004817HS02004824 CONDUIT    760.27     0  01:52      1.09    0.34    1.00
  HS02004824HS02004830 CONDUIT    771.94     0  01:47      1.10    1.01    1.00
  HS02004830HS02004837 CONDUIT    771.46     0  01:47      1.17    0.77    1.00
  HS02004837HS02004842 CONDUIT   1049.20     0  01:47      1.50    0.63    1.00
  HS02004842HS02004848 CONDUIT   1047.95     0  01:47      1.68    0.61    1.00
  HS02004848HS02004852 CONDUIT   1287.38     0  01:48      1.84    1.45    1.00
  HS02004852HS02004856 CONDUIT   1305.37     0  01:48      1.89    1.49    1.00
  HS02004856HS02004862 CONDUIT   1331.15     0  01:48      1.93    1.33    1.00
  HS02004862HS02004870 CONDUIT   1506.45     0  01:48      2.30    1.63    1.00
  HS02004870HS02004876 CONDUIT   1538.83     0  01:48      2.20    1.02    1.00
  HS02004876HS02004881 CONDUIT   1730.66     0  01:48      2.58   18.41    1.00
  HS02004881HS02006253 CONDUIT   1601.00     0  01:49      2.32    0.31    1.00
  HS02004901HS02004770 CONDUIT    265.75     0  02:03      0.38    1.00    1.00
  WS02001211WS02001212 CONDUIT    232.31     0  01:51      0.54    0.18    0.70
  WS02001212WS02001213 CONDUIT    243.72     0  01:51      1.04    0.38    0.57
  WS02001213WS02003059 CONDUIT    229.06     0  01:53      0.47    0.38    0.90
  WS02003059WS02003060 CONDUIT    237.02     0  01:52      0.66    0.15    0.82
  WS02003060WS02003069 CONDUIT   1511.21     0  01:54      2.09    0.59    0.61
  WS02003066WSF200     CONDUIT   1302.48     0  01:51      3.44    0.22    0.38
  WS02003067WS02003066 CONDUIT   1303.22     0  01:51      2.03    0.42    0.56
  WS02003069WS02003072 CONDUIT   1506.48     0  01:53      1.90    0.73    0.66
  WS02003072WS02003073 CONDUIT   1506.89     0  01:54      2.05    3.25    0.62
  WS02004138WS02004139 CONDUIT    190.00     0  00:32      2.14    0.04    0.42
  WS02004139WS02001211 CONDUIT    258.41     0  01:48      0.55    0.33    0.61
  WS02004401WS02004402 CONDUIT   1322.57     0  01:50      1.68    1.59    1.00
  WS02004402WS02004403 CONDUIT   1322.89     0  01:50      1.68    1.90    1.00
  WS02004403WS02004404 CONDUIT   1319.23     0  01:50      1.68    0.95    1.00
  WS02004404WS02004405 CONDUIT   1318.45     0  01:50      1.68   12.92    1.00
  WS02004405WS02004406 CONDUIT   1323.42     0  01:50      1.69    2.61    1.00
  WS02004406WS02004407 CONDUIT   1325.30     0  01:50      1.90    0.59    0.96
  WS02004407WS02004409 CONDUIT   1298.25     0  01:50      2.04    0.46    0.96
  WS02004409WS02004410 CONDUIT   1298.73     0  01:50      1.65    1.68    1.00
  WS02004410WS02004411 CONDUIT   1298.46     0  01:50      1.65    1.77    1.00
  WS02004411WS02004412 CONDUIT   1298.52     0  01:50      1.65    1.84    1.00
  WS02004412WS02004413 CONDUIT   1298.45     0  01:50      1.65    0.87    1.00
  WS02004413WS02003067 CONDUIT   1299.01     0  01:50      2.01    0.56    0.77
  WS02006109WS02006110 CONDUIT   1123.52     0  02:08      2.24    2.16    1.00
  WS02006110WS02006113 CONDUIT   1123.79     0  02:08      2.24    1.02    1.00
  WS02006111WS02006112 CONDUIT   1123.72     0  02:07      2.24    0.53    1.00
  WS02006112WS02006115 CONDUIT   1298.86     0  01:50      1.65    0.77    1.00
  WS02006113WS02006111 CONDUIT   1123.42     0  02:07      2.69    1.35    1.00
  WS02006115WS02006116 CONDUIT   1314.27     0  01:50      1.67    1.69    1.00
  WS02006116WS02004401 CONDUIT   1319.20     0  01:50      1.68    1.82    1.00
  WS02006228WS02006109 CONDUIT   1286.68     0  01:50      2.56    5.62    1.00
  WS02006229WS02006228 CONDUIT   1292.07     0  01:50      2.57    4.28    1.00
  WS02006230WS02006229 CONDUIT   1016.22     0  01:50      2.64   22.62    1.00
  WS02006231WS02006230 CONDUIT    565.86     0  04:15      1.51    8.58    1.00
  WS02006232WS02006231 CONDUIT    563.22     0  03:55      1.46    1.18    1.00
  WS02006234WS02006232 CONDUIT    562.32     0  04:00      1.46    1.14    1.00
  WS02006235WS02006234 CONDUIT    558.60     0  04:00      1.45    5.89    1.00
  WS02006238WS02006235 CONDUIT    429.43     0  04:20      1.45    0.96    1.00
  WS02006239WS02006238 CONDUIT    427.89     0  04:01      1.12    1.37    1.00
  WS02006240WS02006239 CONDUIT    428.53     0  04:01      1.26    1.35    1.00
  WS02006242WS02006240 CONDUIT    427.13     0  04:01      1.14    1.70    1.00
  WS02006243WS02006242 CONDUIT    427.36     0  04:00      1.34    0.91    1.00
  WS02006245WS02006243 CONDUIT    427.34     0  04:00      1.39    1.26    1.00
  WS02006247WS02006245 CONDUIT    427.23     0  04:00      1.37    3.39    1.00
  WS02006248WS02006247 CONDUIT    427.68     0  04:00      1.38    0.93    1.00
  WS02006249WS02006248 CONDUIT    426.09     0  04:00      1.38    2.33    1.00
  WS02006251WS02006249 CONDUIT   1358.22     0  01:49      3.53    3.92    1.00
  WS02006252WS02006251 CONDUIT    405.20     0  02:21     25.60    1.49    1.00
  WS02006253WS02006251 CONDUIT   1636.64     0  01:49      4.25    4.91    1.00
  WS02006256WS02006235 CONDUIT    288.93     0  00:00      4.23    3.06    1.00
  WS02006280WS02006229 CONDUIT   2303.47     0  01:50      4.33    0.49    1.00
  WS02006284WS02006280 CONDUIT   2301.69     0  01:51      3.02    0.96    1.00
  WS02006287WS02006284 CONDUIT   2305.34     0  01:50      2.94    1.07    1.00
  WSF200WS02003060     CONDUIT   1308.06     0  01:51      2.61    0.29    0.51
  YS02001580YS02001583 CONDUIT    182.01     0  01:46      0.92    0.71    1.00
  YS02001583YS02001586 CONDUIT    209.51     0  01:46      0.97    0.32    1.00
  YS02001586YS02001590 CONDUIT    320.26     0  01:50      1.28    0.56    1.00
  YS02001590YS02001593 CONDUIT    320.25     0  01:50      1.13    2.01    1.00
  YS02001593YS02001596 CONDUIT    318.08     0  01:52      1.74    0.50    1.00
  YS02001596YS02001600 CONDUIT    318.07     0  02:07      1.21    0.62    1.00
  YS02001600YS02001601 CONDUIT    318.24     0  01:50      1.13    0.55    1.00
  YS02001601YS02001602 CONDUIT    577.25     0  01:46      2.04    2.09    1.00
  YS02001602YS02001605 CONDUIT    577.48     0  01:46      2.04   12.22    1.00
  YS02001605YS02001607 CONDUIT    577.14     0  01:46      2.04    3.16    1.00
  YS02001607YS02001610 CONDUIT    540.73     0  01:46      0.71    0.51    1.00
  YS02001610YS02001613 CONDUIT    519.11     0  01:46      0.67    0.60    1.00
  YS02001613YS02001616 CONDUIT    508.67     0  01:46      0.66    0.44    1.00
  YS02001616YS02001619 CONDUIT    485.06     0  01:46      0.67    0.84    1.00
  YS02001619YS02001622 CONDUIT    922.59     0  01:47      1.28    1.36    1.00
  YS02001622YS02001625 CONDUIT    922.75     0  01:47      1.17    0.49    1.00
  YS02001625YS02001629 CONDUIT    887.08     0  01:47      1.14    0.42    1.00
  YS02001629YS02163301 CONDUIT    864.58     0  01:47      1.10    1.06    1.00
  YS02001633YS02163601 CONDUIT   1419.21     0  01:48      1.81    1.49    1.00
  YS02001641YS02001644 CONDUIT   1417.81     0  01:48      1.81    4.58    1.00
  YS02001644YS02001647 CONDUIT   1941.99     0  01:48      2.47    1.14    1.00
  YS02001647YS02001649 CONDUIT   1945.10     0  01:48      2.48    1.03    1.00
  YS02001649YS02001757 CONDUIT   2212.38     0  01:48      2.82    1.34    1.00
  YS02001652YS02001649 CONDUIT    914.06     0  01:51      1.16    0.45    1.00
  YS02001655YS02001652 CONDUIT    913.00     0  01:51      1.49    0.44    1.00
  YS02001658YS02001655 CONDUIT    912.06     0  01:51      2.06    0.39    1.00
  YS02001661YS02001658 CONDUIT    912.13     0  01:51      2.49    0.36    1.00
  YS02001664YS02001661 CONDUIT    888.89     0  01:50      2.55    0.28    0.88
  YS02001745YS02001748 CONDUIT    668.25     0  01:50      2.44    0.26    1.00
  YS02001748YS02001751 CONDUIT    656.98     0  01:50      1.94    0.33    1.00
  YS02001751YS02001754 CONDUIT    650.79     0  01:50      1.58    0.31    1.00
  YS02001754YS02001757 CONDUIT    651.36     0  01:50      0.83    0.26    1.00
  YS02001757CaochengTiaoxuchi CONDUIT   3529.04     0  01:50      4.66    1.53    1.00
  YS02001759YS02001757 CONDUIT   1497.32     0  01:49      1.91    1.06    1.00
  YS02001762YS02001759 CONDUIT    840.03     0  01:49      1.07    0.97    1.00
  YS02001765YS02001762 CONDUIT    840.86     0  01:49      1.07    0.79    1.00
  YS02001767YS02001765 CONDUIT    846.89     0  01:49      1.08    1.07    1.00
  YS02001770YS02001767 CONDUIT    852.02     0  01:49      1.08    3.37    1.00
  YS02001774YS02001770 CONDUIT    574.62     0  01:48      0.73    0.37    1.00
  YS02001779YS02001774 CONDUIT    564.37     0  01:48      0.74    0.28    1.00
  YS02001783YS02001784 CONDUIT   1168.20     0  01:50      2.32    1.61    1.00
  YS02001784YS02001785 CONDUIT   1169.61     0  01:50      2.33    2.72    1.00
  YS02001786YS02001788 CONDUIT   1170.03     0  01:50      2.50    2.25    0.89
  YS02001788YS02001790 CONDUIT   1183.45     0  01:48      2.73    0.87    0.84
  YS02001790YS02001791 CONDUIT   1288.02     0  01:53      3.42    1.40    0.70
  YS02001791YS02001793 CONDUIT   1246.48     0  01:49      6.78    0.54    0.43
  YS02001793JiankangQianchi CONDUIT   1247.06     0  01:49      2.50    0.10    0.64
  YS02001882YS02001884 CONDUIT    111.25     0  01:47      0.14    0.13    1.00
  YS02001884YS02001887 CONDUIT    143.85     0  01:47      0.18    0.19    1.00
  YS02001887YS02001890 CONDUIT    748.61     0  01:50      0.95    1.28    1.00
  YS02001890YS02001895 CONDUIT    613.83     0  01:48      0.78    0.29    1.00
  YS02001895YS02001898 CONDUIT    613.90     0  01:47      0.78    1.07    1.00
  YS02001898YS02001901 CONDUIT    614.41     0  01:47      0.78    0.40    1.00
  YS02001901YS02001904 CONDUIT    614.17     0  01:48      0.78    0.95    1.00
  YS02001904YS02001907 CONDUIT    612.84     0  01:48      0.78    0.21    1.00
  YS02001907YS02006553 CONDUIT    805.60     0  02:07      0.90    0.95    1.00
  YS02001910YS02001907 CONDUIT   1201.17     0  01:49      1.53    0.68    1.00
  YS02001915YS02001910 CONDUIT   1200.76     0  01:49      1.53    0.60    1.00
  YS02001918YS02001915 CONDUIT    774.27     0  01:48      0.99    0.43    1.00
  YS02001920YS02001918 CONDUIT    730.95     0  01:48      0.93    0.71    1.00
  YS02001923YS02001920 CONDUIT    757.22     0  01:48      1.03    0.34    1.00
  YS02001926YS02001923 CONDUIT   1021.18     0  01:48      1.47    1.46    1.00
  YS02001929YS02001926 CONDUIT    816.75     0  01:48      1.24    0.39    1.00
  YS02006553YS02006556 CONDUIT    807.35     0  02:07      1.03    0.69    1.00
  YS02006556YS02006558 CONDUIT    808.41     0  02:07      1.03    0.64    1.00
  YS02006558YS02006561 CONDUIT   1193.06     0  01:47      4.22    2.64    1.00
  YS02006561YS02001783 CONDUIT   1169.55     0  01:50      2.33    0.61    1.00
  YS02163301YS02001633 CONDUIT    864.12     0  01:47      1.10    0.81    1.00
  YS02163601YS02164001 CONDUIT   1418.24     0  01:48      1.81    1.26    1.00
  YS02164001YS02001641 CONDUIT   1419.07     0  01:48      1.81    1.94    1.00
  YSB1154YSB6556       CONDUIT    381.05     0  01:51      0.99    0.69    1.00
  YSB1171HS02004479    CONDUIT    546.00     0  01:48      1.09    0.36    1.00
  YSB1174YSB1171       CONDUIT    346.51     0  01:49      0.90    0.53    1.00
  YSB6556YSB1171       CONDUIT    381.50     0  01:51      0.99    0.39    1.00
  CC-R1                PUMP       683.00     0  00:00              1.00
  CC-R2                PUMP       683.00     0  00:00              1.00
  CC-S1                PUMP       200.00     0  00:00              1.00
  CC-S2                PUMP       200.00     0  00:00              1.00
  JK-R1                PUMP      1000.00     0  00:00              1.00
  JK-R2                PUMP      1000.00     0  00:00              1.00
  JK-S                 PUMP       300.00     0  00:00              1.00
  XR-1                 PUMP        95.00     0  00:00              1.00
  XR-2                 PUMP        95.00     0  00:00              1.00
  XR-3                 PUMP        95.00     0  00:00              1.00
  XR-4                 PUMP        95.00     0  00:00              1.00
  
  
  ***************************
  Flow Classification Summary
  ***************************
  
  -------------------------------------------------------------------------------------
                      Adjusted    ---------- Fraction of Time in Flow Class ---------- 
                       /Actual         Up    Down  Sub   Sup   Up    Down  Norm  Inlet 
  Conduit               Length    Dry  Dry   Dry   Crit  Crit  Crit  Crit  Ltd   Ctrl  
  -------------------------------------------------------------------------------------
  1                       1.00   0.00  0.00  0.00  0.00  1.00  0.00  0.00  0.48  0.00
  HS02004478WS02006287    1.00   0.14  0.00  0.00  0.64  0.23  0.00  0.00  0.61  0.00
  HS02004479HS02004480    1.00   0.03  0.00  0.00  0.97  0.00  0.00  0.00  0.12  0.00
  HS02004480HS02004478    1.00   0.12  0.00  0.00  0.58  0.00  0.00  0.30  0.00  0.00
  HS02004770HS02004777    1.00   0.00  0.12  0.00  0.88  0.00  0.00  0.00  0.03  0.00
  HS02004777HS02004785    1.00   0.00  0.00  0.00  1.00  0.00  0.00  0.00  0.13  0.00
  HS02004785HS02004788    1.00   0.00  0.00  0.00  1.00  0.00  0.00  0.00  0.00  0.00
  HS02004788HS02004792    1.00   0.00  0.00  0.00  0.99  0.01  0.00  0.00  0.91  0.00
  HS02004792HS02004799    1.00   0.00  0.00  0.00  0.99  0.01  0.00  0.00  0.88  0.00
  HS02004799HS02004480    1.00   0.00  0.03  0.00  0.87  0.00  0.10  0.00  0.00  0.00
  HS02004802HS02004478    1.00   0.12  0.00  0.00  0.87  0.00  0.00  0.00  0.03  0.00
  HS02004807HS02004802    1.00   0.12  0.00  0.00  0.87  0.00  0.00  0.01  0.00  0.00
  HS02004817HS02004807    1.00   0.00  0.12  0.00  0.88  0.00  0.00  0.00  0.01  0.00
  HS02004817HS02004824    1.00   0.00  0.00  0.00  1.00  0.00  0.00  0.00  0.84  0.00
  HS02004824HS02004830    1.00   0.00  0.00  0.00  1.00  0.00  0.00  0.00  0.00  0.00
  HS02004830HS02004837    1.00   0.00  0.00  0.00  1.00  0.00  0.00  0.00  0.90  0.00
  HS02004837HS02004842    1.00   0.00  0.00  0.00  1.00  0.00  0.00  0.00  0.11  0.00
  HS02004842HS02004848    1.00   0.00  0.12  0.00  0.88  0.00  0.00  0.00  0.58  0.00
  HS02004848HS02004852    1.00   0.12  0.00  0.00  0.88  0.00  0.00  0.00  0.71  0.00
  HS02004852HS02004856    1.00   0.12  0.01  0.00  0.87  0.00  0.00  0.00  0.69  0.00
  HS02004856HS02004862    1.00   0.00  0.14  0.00  0.86  0.00  0.00  0.00  0.75  0.00
  HS02004862HS02004870    1.00   0.00  0.00  0.00  1.00  0.00  0.00  0.00  0.04  0.00
  HS02004870HS02004876    1.00   0.00  0.00  0.00  0.99  0.01  0.00  0.00  0.87  0.00
  HS02004876HS02004881    1.00   0.02  0.00  0.00  0.80  0.19  0.00  0.00  0.00  0.00
  HS02004881HS02006253    1.00   0.01  0.05  0.00  0.66  0.01  0.00  0.27  0.39  0.00
  HS02004901HS02004770    1.00   0.12  0.00  0.00  0.88  0.00  0.00  0.00  0.00  0.00
  WS02001211WS02001212    1.00   0.00  0.02  0.00  0.98  0.00  0.00  0.00  0.00  0.00
  WS02001212WS02001213    1.00   0.02  0.00  0.00  0.63  0.00  0.35  0.00  0.00  0.00
  WS02001213WS02003059    1.00   0.00  0.00  0.00  1.00  0.00  0.00  0.00  0.00  0.00
  WS02003059WS02003060    1.00   0.00  0.00  0.00  1.00  0.00  0.00  0.00  0.03  0.00
  WS02003060WS02003069    1.00   0.00  0.00  0.00  0.96  0.04  0.00  0.00  0.43  0.00
  WS02003066WSF200        1.00   0.08  0.00  0.00  0.00  0.92  0.00  0.00  0.64  0.00
  WS02003067WS02003066    1.00   0.08  0.00  0.00  0.92  0.00  0.00  0.00  0.00  0.00
  WS02003069WS02003072    1.00   0.00  0.00  0.00  1.00  0.00  0.00  0.00  0.47  0.00
  WS02003072WS02003073    1.00   0.00  0.00  0.00  0.00  0.00  0.00  1.00  0.00  0.00
  WS02004138WS02004139    1.00   0.00  0.00  0.00  0.98  0.00  0.00  0.01  0.98  0.00
  WS02004139WS02001211    1.00   0.00  0.00  0.00  1.00  0.00  0.00  0.00  0.00  0.00
  WS02004401WS02004402    1.00   0.02  0.00  0.00  0.98  0.00  0.00  0.00  0.00  0.00
  WS02004402WS02004403    1.00   0.02  0.00  0.00  0.98  0.00  0.00  0.00  0.00  0.00
  WS02004403WS02004404    1.00   0.00  0.02  0.00  0.98  0.00  0.00  0.00  0.00  0.00
  WS02004404WS02004405    1.00   0.00  0.00  0.00  1.00  0.00  0.00  0.00  0.01  0.00
  WS02004405WS02004406    1.00   0.00  0.00  0.00  1.00  0.00  0.00  0.00  0.00  0.00
  WS02004406WS02004407    1.00   0.00  0.04  0.00  0.96  0.00  0.00  0.00  0.00  0.00
  WS02004407WS02004409    1.00   0.04  0.00  0.00  0.93  0.03  0.00  0.00  0.84  0.00
  WS02004409WS02004410    1.00   0.04  0.00  0.00  0.95  0.00  0.00  0.00  0.00  0.00
  WS02004410WS02004411    1.00   0.05  0.00  0.00  0.95  0.00  0.00  0.00  0.00  0.00
  WS02004411WS02004412    1.00   0.05  0.00  0.00  0.95  0.00  0.00  0.00  0.00  0.00
  WS02004412WS02004413    1.00   0.05  0.00  0.00  0.94  0.01  0.00  0.00  0.00  0.00
  WS02004413WS02003067    1.00   0.06  0.02  0.00  0.00  0.00  0.92  0.00  0.00  0.00
  WS02006109WS02006110    1.00   0.00  0.01  0.00  0.99  0.00  0.01  0.00  0.00  0.00
  WS02006110WS02006113    1.00   0.01  0.01  0.00  0.99  0.00  0.00  0.00  0.00  0.00
  WS02006111WS02006112    1.00   0.01  0.00  0.00  0.98  0.00  0.00  0.00  0.77  0.00
  WS02006112WS02006115    1.00   0.02  0.00  0.00  0.98  0.00  0.00  0.00  0.00  0.00
  WS02006113WS02006111    1.00   0.01  0.00  0.00  0.22  0.77  0.00  0.00  0.12  0.00
  WS02006115WS02006116    1.00   0.02  0.00  0.00  0.98  0.00  0.00  0.01  0.00  0.00
  WS02006116WS02004401    1.00   0.02  0.00  0.00  0.98  0.00  0.00  0.00  0.00  0.00
  WS02006228WS02006109    1.00   0.00  0.00  0.00  1.00  0.00  0.00  0.00  0.01  0.00
  WS02006229WS02006228    1.00   0.00  0.00  0.00  0.99  0.00  0.00  0.01  0.00  0.00
  WS02006230WS02006229    1.00   0.00  0.00  0.00  0.99  0.00  0.00  0.01  0.03  0.00
  WS02006231WS02006230    1.00   0.00  0.00  0.00  0.64  0.00  0.36  0.00  0.00  0.00
  WS02006232WS02006231    1.00   0.00  0.00  0.00  0.99  0.00  0.00  0.00  0.00  0.00
  WS02006234WS02006232    1.00   0.00  0.00  0.00  1.00  0.00  0.00  0.00  0.02  0.00
  WS02006235WS02006234    1.00   0.00  0.00  0.00  0.95  0.00  0.05  0.00  0.00  0.00
  WS02006238WS02006235    1.00   0.00  0.00  0.00  1.00  0.00  0.00  0.00  0.00  0.00
  WS02006239WS02006238    1.00   0.00  0.00  0.00  1.00  0.00  0.00  0.00  0.07  0.00
  WS02006240WS02006239    1.00   0.00  0.00  0.00  0.85  0.00  0.00  0.15  0.02  0.00
  WS02006242WS02006240    1.00   0.00  0.00  0.00  0.99  0.00  0.00  0.00  0.00  0.00
  WS02006243WS02006242    1.00   0.00  0.00  0.00  0.99  0.00  0.00  0.00  0.45  0.00
  WS02006245WS02006243    1.00   0.00  0.00  0.00  0.91  0.00  0.00  0.09  0.00  0.00
  WS02006247WS02006245    1.00   0.00  0.00  0.00  0.99  0.00  0.00  0.01  0.00  0.00
  WS02006248WS02006247    1.00   0.00  0.00  0.00  1.00  0.00  0.00  0.00  0.43  0.00
  WS02006249WS02006248    1.00   0.00  0.00  0.00  0.77  0.00  0.23  0.00  0.00  0.00
  WS02006251WS02006249    1.00   0.00  0.00  0.00  1.00  0.00  0.00  0.00  0.42  0.00
  WS02006252WS02006251    1.00   0.00  0.22  0.00  0.33  0.00  0.44  0.00  0.00  0.00
  WS02006253WS02006251    1.00   0.00  0.00  0.00  1.00  0.00  0.00  0.00  0.01  0.00
  WS02006256WS02006235    1.00   0.00  0.00  0.00  0.99  0.01  0.00  0.00  0.00  0.00
  WS02006280WS02006229    1.00   0.13  0.00  0.00  0.15  0.06  0.00  0.66  0.02  0.00
  WS02006284WS02006280    1.00   0.13  0.00  0.00  0.11  0.01  0.00  0.76  0.00  0.00
  WS02006287WS02006284    1.00   0.11  0.02  0.00  0.55  0.32  0.00  0.00  0.66  0.00
  WSF200WS02003060        1.00   0.00  0.08  0.00  0.42  0.49  0.00  0.00  0.45  0.00
  YS02001580YS02001583    1.00   0.21  0.57  0.00  0.22  0.00  0.00  0.00  0.70  0.00
  YS02001583YS02001586    1.00   0.28  0.42  0.00  0.29  0.00  0.00  0.00  0.70  0.00
  YS02001586YS02001590    1.00   0.12  0.00  0.00  0.49  0.08  0.00  0.31  0.35  0.00
  YS02001590YS02001593    1.00   0.12  0.00  0.00  0.12  0.00  0.75  0.00  0.00  0.00
  YS02001593YS02001596    1.00   0.12  0.00  0.00  0.14  0.01  0.00  0.73  0.02  0.00
  YS02001596YS02001600    1.00   0.13  0.00  0.00  0.24  0.02  0.00  0.61  0.05  0.00
  YS02001600YS02001601    1.00   0.12  0.00  0.00  0.87  0.00  0.00  0.00  0.62  0.00
  YS02001601YS02001602    1.00   0.12  0.00  0.00  0.88  0.00  0.00  0.00  0.00  0.00
  YS02001602YS02001605    1.00   0.13  0.00  0.00  0.87  0.00  0.00  0.00  0.00  0.00
  YS02001605YS02001607    1.00   0.13  0.00  0.00  0.87  0.00  0.00  0.00  0.00  0.00
  YS02001607YS02001610    1.00   0.12  0.00  0.00  0.87  0.00  0.00  0.00  0.02  0.00
  YS02001610YS02001613    1.00   0.12  0.00  0.00  0.88  0.00  0.00  0.00  0.01  0.00
  YS02001613YS02001616    1.00   0.12  0.00  0.00  0.88  0.00  0.00  0.00  0.01  0.00
  YS02001616YS02001619    1.00   0.12  0.00  0.00  0.88  0.00  0.00  0.00  0.00  0.00
  YS02001619YS02001622    1.00   0.12  0.00  0.00  0.88  0.00  0.00  0.00  0.30  0.00
  YS02001622YS02001625    1.00   0.12  0.00  0.00  0.88  0.00  0.00  0.00  0.05  0.00
  YS02001625YS02001629    1.00   0.12  0.02  0.00  0.17  0.00  0.69  0.00  0.00  0.00
  YS02001629YS02163301    1.00   0.13  0.00  0.00  0.86  0.00  0.00  0.00  0.00  0.00
  YS02001633YS02163601    1.00   0.00  0.00  0.00  1.00  0.00  0.00  0.00  0.15  0.00
  YS02001641YS02001644    1.00   0.00  0.00  0.00  1.00  0.00  0.00  0.00  0.00  0.00
  YS02001644YS02001647    1.00   0.00  0.14  0.00  0.86  0.00  0.00  0.00  0.00  0.00
  YS02001647YS02001649    1.00   0.00  0.14  0.00  0.48  0.38  0.00  0.00  0.57  0.00
  YS02001649YS02001757    1.00   0.00  0.00  0.00  0.72  0.28  0.00  0.00  0.42  0.00
  YS02001652YS02001649    1.00   0.00  0.00  0.00  0.98  0.02  0.00  0.00  0.74  0.00
  YS02001655YS02001652    1.00   0.00  0.00  0.00  0.21  0.02  0.00  0.77  0.07  0.00
  YS02001658YS02001655    1.00   0.00  0.13  0.00  0.62  0.25  0.00  0.00  0.70  0.00
  YS02001661YS02001658    1.00   0.13  0.00  0.00  0.42  0.45  0.00  0.00  0.73  0.00
  YS02001664YS02001661    1.00   0.12  0.00  0.00  0.74  0.14  0.00  0.00  0.86  0.00
  YS02001745YS02001748    1.00   0.00  0.00  0.00  0.10  0.01  0.00  0.89  0.05  0.00
  YS02001748YS02001751    1.00   0.00  0.00  0.00  0.78  0.22  0.00  0.00  0.79  0.00
  YS02001751YS02001754    1.00   0.00  0.00  0.00  0.19  0.01  0.00  0.80  0.05  0.00
  YS02001754YS02001757    1.00   0.00  0.00  0.00  1.00  0.00  0.00  0.00  0.80  0.00
  YS02001757CaochengTiaoxuchi    1.00   0.00  0.00  0.00  0.97  0.03  0.00  0.00  0.68  0.00
  YS02001759YS02001757    1.00   0.00  0.00  0.00  1.00  0.00  0.00  0.00  0.56  0.00
  YS02001762YS02001759    1.00   0.00  0.00  0.00  1.00  0.00  0.00  0.00  0.05  0.00
  YS02001765YS02001762    1.00   0.00  0.00  0.00  1.00  0.00  0.00  0.00  0.68  0.00
  YS02001767YS02001765    1.00   0.00  0.00  0.00  1.00  0.00  0.00  0.00  0.01  0.00
  YS02001770YS02001767    1.00   0.00  0.00  0.00  1.00  0.00  0.00  0.00  0.00  0.00
  YS02001774YS02001770    1.00   0.00  0.12  0.00  0.78  0.00  0.09  0.00  0.03  0.00
  YS02001779YS02001774    1.00   0.00  0.00  0.00  1.00  0.00  0.00  0.00  0.79  0.00
  YS02001783YS02001784    1.00   0.00  0.15  0.00  0.85  0.00  0.00  0.00  0.56  0.00
  YS02001784YS02001785    1.00   0.00  0.00  0.00  1.00  0.00  0.00  0.00  0.17  0.00
  YS02001786YS02001788    1.00   0.00  0.00  0.00  0.71  0.28  0.00  0.00  0.00  0.00
  YS02001788YS02001790    1.00   0.00  0.00  0.00  0.18  0.82  0.00  0.00  0.84  0.00
  YS02001790YS02001791    1.00   0.00  0.00  0.00  0.01  0.99  0.00  0.00  0.16  0.00
  YS02001791YS02001793    1.00   0.00  0.00  0.00  0.00  1.00  0.00  0.00  0.01  0.00
  YS02001793JiankangQianchi    1.00   0.00  0.00  0.00  0.96  0.04  0.00  0.00  0.99  0.00
  YS02001882YS02001884    1.00   0.13  0.00  0.00  0.86  0.00  0.00  0.00  0.00  0.00
  YS02001884YS02001887    1.00   0.08  0.03  0.00  0.88  0.00  0.00  0.00  0.00  0.00
  YS02001887YS02001890    1.00   0.00  0.00  0.00  0.98  0.00  0.02  0.00  0.00  0.00
  YS02001890YS02001895    1.00   0.00  0.13  0.00  0.86  0.00  0.00  0.00  0.00  0.00
  YS02001895YS02001898    1.00   0.14  0.00  0.00  0.85  0.00  0.01  0.00  0.00  0.00
  YS02001898YS02001901    1.00   0.14  0.00  0.00  0.86  0.00  0.00  0.00  0.01  0.00
  YS02001901YS02001904    1.00   0.14  0.00  0.00  0.86  0.00  0.00  0.00  0.00  0.00
  YS02001904YS02001907    1.00   0.00  0.14  0.00  0.86  0.00  0.00  0.00  0.00  0.00
  YS02001907YS02006553    1.00   0.00  0.02  0.00  0.98  0.00  0.00  0.00  0.00  0.00
  YS02001910YS02001907    1.00   0.00  0.00  0.00  0.98  0.00  0.00  0.02  0.12  0.00
  YS02001915YS02001910    1.00   0.00  0.00  0.00  0.98  0.02  0.00  0.00  0.16  0.00
  YS02001918YS02001915    1.00   0.00  0.00  0.00  0.98  0.01  0.00  0.00  0.77  0.00
  YS02001920YS02001918    1.00   0.00  0.00  0.00  1.00  0.00  0.00  0.00  0.00  0.00
  YS02001923YS02001920    1.00   0.00  0.00  0.00  1.00  0.00  0.00  0.00  0.93  0.00
  YS02001926YS02001923    1.00   0.00  0.09  0.00  0.06  0.00  0.85  0.00  0.00  0.00
  YS02001929YS02001926    1.00   0.00  0.12  0.00  0.88  0.00  0.00  0.00  0.83  0.00
  YS02006553YS02006556    1.00   0.01  0.00  0.00  0.99  0.00  0.00  0.00  0.03  0.00
  YS02006556YS02006558    1.00   0.00  0.00  0.00  1.00  0.00  0.00  0.00  0.00  0.00
  YS02006558YS02006561    1.00   0.15  0.00  0.00  0.05  0.80  0.00  0.00  0.19  0.00
  YS02006561YS02001783    1.00   0.15  0.00  0.00  0.08  0.77  0.00  0.00  0.70  0.00
  YS02163301YS02001633    1.00   0.00  0.13  0.00  0.87  0.00  0.00  0.00  0.00  0.00
  YS02163601YS02164001    1.00   0.00  0.10  0.00  0.90  0.00  0.00  0.00  0.00  0.00
  YS02164001YS02001641    1.00   0.00  0.09  0.00  0.90  0.00  0.00  0.00  0.06  0.00
  YSB1154YSB6556          1.00   0.12  0.00  0.00  0.88  0.00  0.00  0.00  0.02  0.00
  YSB1171HS02004479       1.00   0.03  0.00  0.00  0.93  0.01  0.00  0.03  0.10  0.00
  YSB1174YSB1171          1.00   0.06  0.05  0.00  0.89  0.00  0.00  0.00  0.00  0.00
  YSB6556YSB1171          1.00   0.03  0.09  0.00  0.88  0.00  0.00  0.00  0.00  0.00
  
  
  *************************
  Conduit Surcharge Summary
  *************************
  
  ----------------------------------------------------------------------------
                                                           Hours        Hours 
                         --------- Hours Full --------   Above Full   Capacity
  Conduit                Both Ends  Upstream  Dnstream   Normal Flow   Limited
  ----------------------------------------------------------------------------
  HS02004478WS02006287        0.40      0.40      0.55      0.01         0.01
  HS02004479HS02004480        0.56      0.56      0.58      0.01         0.01
  HS02004480HS02004478        0.50      0.56      0.50      1.54         0.50
  HS02004770HS02004777        0.48      0.48      0.48      0.09         0.07
  HS02004777HS02004785        0.43      0.43      0.48      0.01         0.01
  HS02004785HS02004788        0.42      0.43      0.42      1.22         0.40
  HS02004788HS02004792        0.42      0.42      0.53      0.01         0.01
  HS02004792HS02004799        0.53      0.53      0.62      0.01         0.01
  HS02004799HS02004480        0.56      0.56      0.62      0.70         0.01
  HS02004802HS02004478        0.51      0.51      0.57      0.04         0.01
  HS02004807HS02004802        0.55      0.55      0.56      0.19         0.20
  HS02004817HS02004807        0.55      0.55      1.03      0.01         0.01
  HS02004817HS02004824        0.43      0.43      1.03      0.01         0.01
  HS02004824HS02004830        0.40      0.40      0.43      0.01         0.01
  HS02004830HS02004837        0.36      0.36      0.40      0.01         0.01
  HS02004837HS02004842        0.36      0.36      0.48      0.01         0.01
  HS02004842HS02004848        0.34      0.34      0.48      0.01         0.01
  HS02004848HS02004852        0.34      0.34      0.37      0.02         0.01
  HS02004852HS02004856        0.37      0.37      0.38      0.02         0.01
  HS02004856HS02004862        0.35      0.35      0.38      0.01         0.01
  HS02004862HS02004870        0.38      0.38      0.40      0.11         0.08
  HS02004870HS02004876        0.40      0.40      0.47      0.01         0.01
  HS02004876HS02004881        0.45      0.47      0.45      1.28         0.45
  HS02004881HS02006253        0.45      0.45      2.26      0.01         0.01
  HS02004901HS02004770        0.48      0.48      0.49      0.01         0.01
  WS02003072WS02003073        0.01      0.01      0.01      3.74         0.01
  WS02004401WS02004402        1.53      1.53      1.58      1.21         1.19
  WS02004402WS02004403        1.58      1.58      1.58      1.53         1.51
  WS02004403WS02004404        1.58      1.58      1.69      0.01         0.01
  WS02004404WS02004405        1.65      1.69      1.65      4.43         1.65
  WS02004405WS02004406        1.61      1.65      1.61      2.05         1.61
  WS02004406WS02004407        0.01      0.01      1.61      0.01         0.01
  WS02004407WS02004409        0.01      0.01      0.83      0.01         0.01
  WS02004409WS02004410        0.74      0.83      0.74      1.35         0.74
  WS02004410WS02004411        0.71      0.74      0.71      1.41         0.71
  WS02004411WS02004412        0.65      0.71      0.65      1.50         0.64
  WS02004412WS02004413        0.65      0.65      1.10      0.01         0.01
  WS02004413WS02003067        0.01      0.01      1.10      0.01         0.01
  WS02006109WS02006110        1.91      1.91      3.00      1.95         0.01
  WS02006110WS02006113        1.03      1.03      2.95      0.29         0.01
  WS02006111WS02006112        0.99      0.99      3.65      0.01         0.01
  WS02006112WS02006115        1.35      1.35      2.21      0.01         0.01
  WS02006113WS02006111        1.02      1.03      1.02      1.18         1.01
  WS02006115WS02006116        1.37      1.37      1.38      1.35         1.32
  WS02006116WS02004401        1.52      1.52      1.53      1.43         1.42
  WS02006228WS02006109        2.88      3.00      2.88      4.02         2.88
  WS02006229WS02006228        2.87      2.92      2.87      3.57         2.86
  WS02006230WS02006229        3.24      3.47      3.24      4.54         2.34
  WS02006231WS02006230        1.78      1.78      2.02      4.20         0.84
  WS02006232WS02006231        1.97      1.97      2.89      0.11         0.12
  WS02006234WS02006232        2.74      2.74      2.89      0.09         0.11
  WS02006235WS02006234        2.70      2.70      2.75      4.05         0.82
  WS02006238WS02006235        2.77      2.77      2.90      0.01         0.29
  WS02006239WS02006238        2.81      2.86      2.82      2.50         1.37
  WS02006240WS02006239        2.76      2.79      2.76      2.45         1.30
  WS02006242WS02006240        2.77      2.77      3.01      3.07         0.72
  WS02006243WS02006242        2.80      2.80      2.93      0.01         0.05
  WS02006245WS02006243        2.78      2.79      2.78      1.64         1.21
  WS02006247WS02006245        2.78      2.82      2.78      3.88         1.78
  WS02006248WS02006247        2.77      2.77      2.80      0.01         0.06
  WS02006249WS02006248        2.76      2.76      2.79      2.98         0.01
  WS02006251WS02006249        2.78      2.79      2.79      3.18         2.72
  WS02006252WS02006251        3.30      3.30      3.32      2.91         0.01
  WS02006253WS02006251        2.78      2.78      2.80      0.67         0.02
  WS02006256WS02006235        4.26      4.31      7.58      0.52         0.01
  WS02006280WS02006229        0.67      0.67      0.74      0.01         0.01
  WS02006284WS02006280        0.57      0.57      0.65      0.01         0.01
  WS02006287WS02006284        0.50      0.50      0.58      0.23         0.23
  YS02001580YS02001583        0.49      0.49      0.54      0.01         0.01
  YS02001583YS02001586        0.50      0.50      0.62      0.01         0.01
  YS02001586YS02001590        0.63      0.63      0.69      0.01         0.01
  YS02001590YS02001593        0.69      0.69      0.70      0.74         0.01
  YS02001593YS02001596        0.70      0.70      0.78      0.01         0.01
  YS02001596YS02001600        0.81      0.81      0.90      0.01         0.01
  YS02001600YS02001601        0.96      0.96      1.26      0.01         0.01
  YS02001601YS02001602        1.13      1.13      1.31      0.91         0.01
  YS02001602YS02001605        1.07      1.07      1.13      2.05         0.01
  YS02001605YS02001607        1.03      1.07      1.03      1.21         1.03
  YS02001607YS02001610        0.66      0.66      0.68      0.01         0.01
  YS02001610YS02001613        0.65      0.65      0.68      0.01         0.01
  YS02001613YS02001616        0.61      0.61      0.65      0.01         0.01
  YS02001616YS02001619        0.60      0.60      0.61      0.01         0.01
  YS02001619YS02001622        0.60      0.60      0.60      0.71         0.57
  YS02001622YS02001625        0.60      0.60      0.76      0.01         0.01
  YS02001625YS02001629        0.56      0.56      0.76      0.01         0.01
  YS02001629YS02163301        0.75      0.75      0.76      0.17         0.16
  YS02001633YS02163601        0.77      0.77      0.80      0.33         0.33
  YS02001641YS02001644        0.70      0.73      0.70      1.37         0.69
  YS02001644YS02001647        0.52      0.52      0.70      0.03         0.01
  YS02001647YS02001649        0.52      0.52      0.62      0.01         0.01
  YS02001649YS02001757        0.62      0.62      0.68      0.06         0.11
  YS02001652YS02001649        0.47      0.47      0.62      0.01         0.01
  YS02001655YS02001652        0.30      0.30      0.45      0.01         0.01
  YS02001658YS02001655        0.13      0.13      0.30      0.01         0.01
  YS02001661YS02001658        0.01      0.01      0.13      0.01         0.01
  YS02001664YS02001661        0.01      0.01      0.02      0.01         0.01
  YS02001745YS02001748        0.01      0.01      0.04      0.01         0.01
  YS02001748YS02001751        0.11      0.11      0.19      0.01         0.01
  YS02001751YS02001754        0.19      0.19      0.34      0.01         0.01
  YS02001754YS02001757        0.39      0.39      0.68      0.01         0.01
  YS02001757CaochengTiaoxuchi        0.61      0.68      1.96      0.32         0.23
  YS02001759YS02001757        0.59      0.59      0.68      0.01         0.03
  YS02001762YS02001759        0.56      0.56      0.59      0.01         0.02
  YS02001765YS02001762        0.51      0.51      0.56      0.01         0.01
  YS02001767YS02001765        0.49      0.49      0.51      0.01         0.04
  YS02001770YS02001767        0.48      0.48      0.49      0.44         0.36
  YS02001774YS02001770        0.45      0.45      0.54      0.01         0.01
  YS02001779YS02001774        0.34      0.34      0.54      0.01         0.01
  YS02001783YS02001784        0.44      0.46      0.44      0.57         0.44
  YS02001784YS02001785        0.34      0.44      0.34      0.77         0.34
  YS02001786YS02001788        0.01      0.34      0.01      0.65         0.01
  YS02001790YS02001791        0.01      0.01      0.01      0.43         0.01
  YS02001793JiankangQianchi        0.01      0.01      6.59      0.01         0.01
  YS02001882YS02001884        0.41      0.41      0.42      0.01         0.01
  YS02001884YS02001887        0.44      0.44      0.45      0.01         0.01
  YS02001887YS02001890        0.46      0.46      0.47      0.09         0.01
  YS02001890YS02001895        0.40      0.40      0.48      0.01         0.01
  YS02001895YS02001898        0.39      0.39      0.40      0.01         0.01
  YS02001898YS02001901        0.40      0.40      0.44      0.01         0.01
  YS02001901YS02001904        0.43      0.43      0.44      0.01         0.01
  YS02001904YS02001907        0.43      0.43      0.64      0.01         0.01
  YS02001907YS02006553        0.77      0.77      0.82      0.01         0.01
  YS02001910YS02001907        0.49      0.49      0.62      0.01         0.01
  YS02001915YS02001910        0.41      0.41      0.49      0.01         0.01
  YS02001918YS02001915        0.33      0.33      0.41      0.01         0.01
  YS02001920YS02001918        0.33      0.33      0.35      0.01         0.01
  YS02001923YS02001920        0.30      0.30      0.35      0.01         0.01
  YS02001926YS02001923        0.02      0.02      0.04      0.01         0.01
  YS02001929YS02001926        0.01      0.01      0.04      0.01         0.01
  YS02006553YS02006556        0.55      0.55      0.64      0.01         0.01
  YS02006556YS02006558        0.59      0.59      0.65      0.01         0.01
  YS02006558YS02006561        0.37      0.55      0.37      0.73         0.37
  YS02006561YS02001783        0.30      0.30      0.46      0.01         0.01
  YS02163301YS02001633        0.76      0.76      0.79      0.01         0.01
  YS02163601YS02164001        0.73      0.73      0.80      0.03         0.01
  YS02164001YS02001641        0.73      0.73      0.73      0.64         0.57
  YSB1154YSB6556              0.60      0.60      0.72      0.01         0.01
  YSB1171HS02004479           0.53      0.53      0.73      0.01         0.01
  YSB1174YSB1171              0.65      0.65      0.95      0.01         0.01
  YSB6556YSB1171              0.60      0.60      1.09      0.01         0.01
  
  
  ***************
  Pumping Summary
  ***************
  
  ---------------------------------------------------------------------------------------------------------
                                                  Min       Avg       Max     Total     Power    % Time Off
                        Percent   Number of      Flow      Flow      Flow    Volume     Usage    Pump Curve
  Pump                 Utilized   Start-Ups       LPS       LPS       LPS  10^6 ltr     Kw-hr    Low   High
  ---------------------------------------------------------------------------------------------------------
  CC-R1                   15.56           6      0.00    683.00    683.00     3.061     57.19    0.0    7.2
  CC-R2                    9.34           7      0.00    683.00    683.00     1.836     34.47    0.0   12.5
  CC-S1                   46.66          26      0.00    200.00    200.00     2.688     17.97    0.0    0.0
  CC-S2                   43.35          20      0.00    200.00    200.00     2.497     16.72    0.0    0.0
  JK-R1                    4.82          16      0.00   1000.00   1000.00     1.387     11.45    0.0    0.0
  JK-R2                    4.60          15      0.00   1000.00   1000.00     1.323      9.77    0.0    0.0
  JK-S                    10.54          36      0.00    300.00    300.00     0.911     16.53    0.0    0.0
  XR-1                    97.91           2      0.00     95.00     95.00     2.679      9.64    0.0    0.0
  XR-2                    93.95           2      0.00     95.00     95.00     2.571      8.80    0.0    0.0
  XR-3                     0.00           1      0.00     95.00     95.00     0.000      0.00    0.0    0.0
  XR-4                     0.00           1      0.00     95.00     95.00     0.000      0.00    0.0    0.0
  

  Analysis begun on:  Mon Feb 27 13:40:22 2023
  Analysis ended on:  Mon Feb 27 13:40:26 2023
  Total elapsed time: 00:00:04