
  OWA STORM WATER MANAGEMENT MODEL - VERSION v5.1.14 (OWA 2023-01-25)
  --------------------------------------------------------------

  WARNING 04: minimum elevation drop used for Conduit WS02004404WS02004405
  WARNING 03: negative offset ignored for Link YS02001904YS02001907
  
  *********************************************************
  NOTE: The summary statistics displayed in this report are
  based on results found at every computational time step,  
  not just on results from each reporting time step.
  *********************************************************
  
  ****************
  Analysis Options
  ****************
  Flow Units ............... LPS
  Process Models:
    Rainfall/Runoff ........ YES
    RDII ................... NO
    Snowmelt ............... NO
    Groundwater ............ NO
    Flow Routing ........... YES
    Ponding Allowed ........ NO
    Water Quality .......... NO
  Infiltration Method ...... HORTON
  Flow Routing Method ...... DYNWAVE
  Surcharge Method ......... EXTRAN
  Starting Date ............ 08/28/2015 08:00:00
  Ending Date .............. 08/28/2015 16:00:00
  Antecedent Dry Days ...... 8.0
  Report Time Step ......... 00:01:00
  Wet Time Step ............ 00:01:00
  Dry Time Step ............ 00:01:00
  Routing Time Step ........ 30.00 sec
  Variable Time Step ....... YES
  Maximum Trials ........... 8
  Number of Threads ........ 1
  Head Tolerance ........... 0.001500 m
  
  
  **************************        Volume         Depth
  Runoff Quantity Continuity     hectare-m            mm
  **************************     ---------       -------
  Total Precipitation ......         2.623        43.293
  Evaporation Loss .........         0.000         0.000
  Infiltration Loss ........         0.230         3.803
  Surface Runoff ...........         2.332        38.492
  Final Storage ............         0.061         1.006
  Continuity Error (%) .....        -0.018
  
  
  **************************        Volume        Volume
  Flow Routing Continuity        hectare-m      10^6 ltr
  **************************     ---------     ---------
  Dry Weather Inflow .......         0.630         6.296
  Wet Weather Inflow .......         2.332        23.318
  Groundwater Inflow .......         0.000         0.000
  RDII Inflow ..............         0.000         0.000
  External Inflow ..........         0.105         1.045
  External Outflow .........         2.268        22.678
  Flooding Loss ............         0.790         7.902
  Evaporation Loss .........         0.000         0.000
  Exfiltration Loss ........         0.000         0.000
  Initial Stored Volume ....         0.303         3.031
  Final Stored Volume ......         0.322         3.222
  Continuity Error (%) .....        -0.333
  
  
  *************************
  Highest Continuity Errors
  *************************
  Node YS02001583 (-5.74%)
  Node YS02001884 (5.11%)
  Node WS02006256 (-4.11%)
  Node YS02001774 (1.93%)
  Node HS02004842 (1.93%)
  
  
  ***************************
  Time-Step Critical Elements
  ***************************
  Link WS02006280WS02006229 (45.46%)
  Link WS02006252WS02006251 (17.57%)
  Link WS02006238WS02006235 (12.35%)
  Link YS02001791YS02001793 (4.97%)
  Link WS02004404WS02004405 (4.54%)
  
  
  ********************************
  Highest Flow Instability Indexes
  ********************************
  Link WS02006113WS02006111 (22)
  Link WS02006256WS02006235 (22)
  Link WS02006238WS02006235 (19)
  Link WS02006252WS02006251 (19)
  Link WS02004404WS02004405 (19)
  
  
  *************************
  Routing Time Step Summary
  *************************
  Minimum Time Step           :     0.01 sec
  Average Time Step           :     2.39 sec
  Maximum Time Step           :     6.46 sec
  Percent in Steady State     :    -0.00
  Average Iterations per Step :     3.58
  Percent Not Converging      :    16.64
  
  
  ***************************
  Subcatchment Runoff Summary
  ***************************
  
  ------------------------------------------------------------------------------------------------------------------------------
                            Total      Total      Total      Total     Imperv       Perv      Total       Total     Peak  Runoff
                           Precip      Runon       Evap      Infil     Runoff     Runoff     Runoff      Runoff   Runoff   Coeff
  Subcatchment                 mm         mm         mm         mm         mm         mm         mm    10^6 ltr      LPS
  ------------------------------------------------------------------------------------------------------------------------------
  sub0                      43.29       0.00       0.00       0.96      39.01       2.07      41.08        0.03    23.42   0.949
  sub1                      43.29       0.00       0.00       1.64      37.28       3.13      40.41        0.27   157.30   0.933
  sub10                     43.29       0.00       0.00       1.15      38.54       2.31      40.85        0.45   268.69   0.944
  sub11                     43.29       0.00       0.00       1.14      38.56       2.33      40.89        0.48   297.17   0.945
  sub12                     43.29       0.00       0.00       1.85      36.48       3.78      40.27        0.35   239.83   0.930
  sub14                     43.29       0.00       0.00       1.30      38.13       2.60      40.74        0.39   237.51   0.941
  sub15                     43.29       0.00       0.00       5.09      29.33       7.90      37.23        0.64   360.88   0.860
  sub16                     43.29       0.00       0.00       5.26      28.09       9.03      37.13        0.39   241.97   0.858
  sub17                     43.29       0.00       0.00       5.13      28.51       8.73      37.24        0.32   196.82   0.860
  sub2                      43.29       0.00       0.00       7.21      26.37       8.81      35.18        0.33   157.22   0.813
  sub22                     43.29       0.00       0.00       7.70      23.89      10.92      34.81        2.20  1191.11   0.804
  sub23                     43.29       0.00       0.00       6.28      26.41       9.74      36.15        1.72   992.25   0.835
  sub3                      43.29       0.00       0.00       7.77      26.33       8.25      34.58        0.78   338.56   0.799
  sub4                      43.29       0.00       0.00       1.83      37.12       2.93      40.05        0.84   378.70   0.925
  sub5                      43.29       0.00       0.00       1.01      38.95       2.03      40.98        0.46   271.83   0.947
  sub60                     43.29       0.00       0.00       1.74      36.89       3.46      40.35        0.53   336.19   0.932
  sub61                     43.29       0.00       0.00       2.52      34.80       4.84      39.64        0.73   465.03   0.916
  sub62                     43.29       0.00       0.00       1.16      38.54       2.31      40.84        1.12   658.62   0.943
  sub63                     43.29       0.00       0.00       4.67      29.76       7.89      37.66        0.85   517.85   0.870
  sub64                     43.29       0.00       0.00       2.36      35.59       4.14      39.73        0.95   531.82   0.918
  sub65                     43.29       0.00       0.00       2.04      36.41       3.59      40.00        1.10   593.11   0.924
  sub66                     43.29       0.00       0.00       5.73      29.66       6.83      36.49        1.70   763.35   0.843
  sub67                     43.29       0.00       0.00       1.12      38.58       2.35      40.93        0.76   510.15   0.945
  sub68                     43.29       0.00       0.00       2.09      36.04       3.97      40.01        1.10   673.24   0.924
  sub69                     43.29       0.00       0.00       1.85      36.68       4.65      41.33        1.53   791.44   0.955
  sub7                      43.29       0.00       0.00       1.28      38.15       2.62      40.77        0.14    87.93   0.942
  sub70                     43.29       0.00       0.00       6.09      28.41       8.63      37.04        1.07   431.21   0.856
  sub71                     43.29       0.00       0.00       1.19      38.50       2.27      40.77        1.07   577.50   0.942
  sub72                     43.29       0.00       0.00       1.06      38.86       1.97      40.83        0.56   278.98   0.943
  sub8                      43.29       0.00       0.00       1.29      38.14       2.61      40.75        0.26   161.43   0.941
  sub9                      43.29       0.00       0.00       1.29      38.14       2.60      40.74        0.20   120.69   0.941
  
  
  ******************
  Node Depth Summary
  ******************
  
  ---------------------------------------------------------------------------------
                                 Average  Maximum  Maximum  Time of Max    Reported
                                   Depth    Depth      HGL   Occurrence   Max Depth
  Node                 Type       Meters   Meters   Meters  days hr:min      Meters
  ---------------------------------------------------------------------------------
  HS02004478           JUNCTION     0.20     1.59    10.82     0  02:12        1.51
  HS02004479           JUNCTION     0.28     1.71    10.91     0  02:12        1.65
  HS02004480           JUNCTION     0.24     1.69    10.93     0  02:12        1.62
  HS02004770           JUNCTION     0.25     1.42    11.25     0  02:09        1.42
  HS02004777           JUNCTION     0.27     1.48    11.28     0  02:09        1.44
  HS02004785           JUNCTION     0.17     1.49    11.39     0  02:09        1.33
  HS02004788           JUNCTION     0.13     1.42    11.32     0  02:09        1.31
  HS02004792           JUNCTION     0.18     1.60    11.12     0  02:09        1.60
  HS02004799           JUNCTION     0.30     1.76    10.97     0  02:12        1.76
  HS02004802           JUNCTION     0.30     1.81    10.93     0  02:12        1.65
  HS02004807           JUNCTION     0.26     1.92    11.09     0  02:12        1.69
  HS02004817           JUNCTION     0.57     2.44    11.29     0  02:12        2.05
  HS02004824           JUNCTION     0.13     2.01    11.41     0  02:12        1.54
  HS02004830           JUNCTION     0.13     2.03    11.50     0  02:12        1.50
  HS02004837           JUNCTION     0.11     1.99    11.57     0  02:12        1.40
  HS02004842           JUNCTION     0.40     2.22    11.49     0  02:12        1.72
  HS02004848           JUNCTION     0.09     2.07    11.67     0  02:12        1.39
  HS02004852           JUNCTION     0.09     2.12    11.63     0  02:12        1.44
  HS02004856           JUNCTION     0.15     2.07    11.50     0  02:12        1.49
  HS02004862           JUNCTION     0.11     2.00    11.38     0  02:12        1.47
  HS02004870           JUNCTION     0.10     2.04    11.33     0  02:12        1.46
  HS02004876           JUNCTION     0.15     2.14    11.17     0  02:12        1.95
  HS02004881           JUNCTION     0.09     2.15    11.18     0  02:12        2.15
  HS02004901           JUNCTION     0.26     1.42    11.24     0  02:09        1.42
  WS02001211           JUNCTION     0.63     0.80     5.64     0  02:17        0.80
  WS02001212           JUNCTION     0.37     0.56     5.63     0  02:17        0.56
  WS02001213           JUNCTION     0.59     0.86     5.62     0  02:17        0.86
  WS02003059           JUNCTION     0.66     0.93     5.61     0  02:18        0.93
  WS02003060           JUNCTION     0.38     0.67     5.61     0  02:16        0.67
  WS02003066           JUNCTION     0.23     0.45     6.00     0  02:14        0.45
  WS02003067           JUNCTION     0.55     0.88     6.20     0  02:13        0.88
  WS02003069           JUNCTION     0.43     0.76     5.35     0  02:17        0.76
  WS02003072           JUNCTION     0.49     0.80     5.17     0  02:17        0.80
  WS02003073           JUNCTION     0.29     0.51     4.57     0  02:18        0.51
  WS02004138           JUNCTION     0.13     0.14     7.39     0  00:29        0.14
  WS02004139           JUNCTION     0.57     0.73     5.64     0  02:17        0.73
  WS02004401           JUNCTION     0.75     1.77     7.77     0  02:12        1.76
  WS02004402           JUNCTION     0.77     1.72     7.68     0  02:14        1.71
  WS02004403           JUNCTION     0.78     1.65     7.58     0  02:13        1.64
  WS02004404           JUNCTION     0.84     1.66     7.51     0  02:14        1.66
  WS02004405           JUNCTION     0.83     1.62     7.47     0  02:14        1.61
  WS02004406           JUNCTION     0.82     1.51     7.34     0  02:13        1.50
  WS02004407           JUNCTION     0.25     0.86     7.18     0  02:14        0.86
  WS02004409           JUNCTION     0.52     1.34     7.11     0  02:14        1.34
  WS02004410           JUNCTION     0.53     1.26     6.98     0  02:13        1.25
  WS02004411           JUNCTION     0.54     1.18     6.86     0  02:15        1.17
  WS02004412           JUNCTION     0.55     1.09     6.73     0  02:14        1.08
  WS02004413           JUNCTION     0.69     1.13     6.60     0  02:14        1.13
  WS02006109           JUNCTION     0.95     2.64     9.26     0  02:08        2.64
  WS02006110           JUNCTION     0.89     2.36     8.94     0  02:17        2.36
  WS02006111           JUNCTION     0.39     1.65     8.35     0  02:14        1.65
  WS02006112           JUNCTION     0.96     2.26     8.14     0  02:14        2.25
  WS02006113           JUNCTION     0.47     1.76     8.65     0  02:13        1.75
  WS02006115           JUNCTION     0.67     1.85     7.99     0  02:13        1.85
  WS02006116           JUNCTION     0.74     1.85     7.89     0  02:13        1.85
  WS02006228           JUNCTION     0.99     3.03     9.68     0  02:12        2.99
  WS02006229           JUNCTION     1.00     3.23     9.92     0  02:12        3.18
  WS02006230           JUNCTION     0.94     2.65     9.39     0  02:06        2.65
  WS02006231           JUNCTION     0.67     2.19     9.32     0  02:28        2.19
  WS02006232           JUNCTION     0.76     2.18     9.22     0  02:06        2.18
  WS02006234           JUNCTION     0.66     1.96     9.12     0  01:50        1.96
  WS02006235           JUNCTION     0.67     1.95     9.11     0  02:28        1.94
  WS02006238           JUNCTION     0.69     1.95     9.09     0  02:28        1.93
  WS02006239           JUNCTION     0.64     1.83     9.04     0  03:45        1.79
  WS02006240           JUNCTION     0.59     1.71     9.00     0  03:45        1.64
  WS02006242           JUNCTION     0.63     1.55     8.82     0  01:51        1.55
  WS02006243           JUNCTION     0.53     1.48     8.90     0  01:52        1.40
  WS02006245           JUNCTION     0.51     1.31     8.80     0  03:45        1.27
  WS02006247           JUNCTION     0.52     1.26     8.76     0  03:45        1.25
  WS02006248           JUNCTION     0.47     1.10     8.69     0  01:59        1.10
  WS02006249           JUNCTION     0.49     1.09     8.69     0  01:59        1.09
  WS02006251           JUNCTION     0.56     2.21     9.88     0  02:12        2.21
  WS02006252           JUNCTION     0.37     1.50     9.74     0  00:00        1.50
  WS02006253           JUNCTION     0.62     3.52    11.16     0  02:12        3.52
  WS02006256           JUNCTION     1.02     2.35     9.28     0  00:00        2.35
  WS02006280           JUNCTION     0.26     1.74    10.01     0  02:12        1.70
  WS02006284           JUNCTION     0.53     1.96    10.36     0  02:12        1.88
  WS02006287           JUNCTION     0.26     1.75    10.71     0  02:12        1.66
  WSF200               JUNCTION     0.22     0.51     5.74     0  02:16        0.51
  YS02001580           JUNCTION     0.06     1.05     9.59     0  02:08        1.00
  YS02001583           JUNCTION     0.09     1.14     9.64     0  02:08        0.93
  YS02001586           JUNCTION     0.16     1.13     9.30     0  02:08        1.13
  YS02001590           JUNCTION     0.26     1.39     9.25     0  02:08        1.37
  YS02001593           JUNCTION     0.18     1.29     9.15     0  02:08        1.28
  YS02001596           JUNCTION     0.25     1.66     9.08     0  02:16        1.65
  YS02001600           JUNCTION     0.32     1.87     9.00     0  02:08        1.86
  YS02001601           JUNCTION     0.52     2.06     8.90     0  02:08        2.06
  YS02001602           JUNCTION     0.44     1.87     8.77     0  02:08        1.87
  YS02001605           JUNCTION     0.40     1.78     8.68     0  02:24        1.78
  YS02001607           JUNCTION     0.40     1.64     8.49     0  02:14        1.64
  YS02001610           JUNCTION     0.44     1.68     8.48     0  02:11        1.68
  YS02001613           JUNCTION     0.40     1.66     8.50     0  02:12        1.65
  YS02001616           JUNCTION     0.33     1.59     8.50     0  02:11        1.58
  YS02001619           JUNCTION     0.31     1.58     8.51     0  02:11        1.57
  YS02001622           JUNCTION     0.29     1.56     8.46     0  02:12        1.56
  YS02001625           JUNCTION     0.56     1.78     8.38     0  02:11        1.78
  YS02001629           JUNCTION     0.41     1.85     8.40     0  02:13        1.84
  YS02001633           JUNCTION     0.49     2.00     8.45     0  02:14        1.95
  YS02001641           JUNCTION     0.47     1.95     8.38     0  02:14        1.85
  YS02001644           JUNCTION     0.46     1.92     8.35     0  02:14        1.83
  YS02001647           JUNCTION     0.24     1.68     8.29     0  02:14        1.54
  YS02001649           JUNCTION     0.27     1.82     8.21     0  02:14        1.66
  YS02001652           JUNCTION     0.16     1.69     8.28     0  02:14        1.49
  YS02001655           JUNCTION     0.11     1.64     8.49     0  02:13        1.26
  YS02001658           JUNCTION     0.08     1.51     8.66     0  02:14        1.00
  YS02001661           JUNCTION     0.13     0.77     8.17     0  02:14        0.76
  YS02001664           JUNCTION     0.05     0.28     8.20     0  02:13        0.27
  YS02001745           JUNCTION     0.05     0.49     8.01     0  02:15        0.47
  YS02001748           JUNCTION     0.07     0.93     8.01     0  02:14        0.85
  YS02001751           JUNCTION     0.09     1.44     8.32     0  02:13        1.02
  YS02001754           JUNCTION     0.12     1.53     8.13     0  02:13        1.28
  YS02001757           JUNCTION     0.27     1.75     8.01     0  02:14        1.62
  YS02001759           JUNCTION     0.21     1.73     8.09     0  02:14        1.57
  YS02001762           JUNCTION     0.20     1.72     8.12     0  02:14        1.54
  YS02001765           JUNCTION     0.19     1.69     8.14     0  02:14        1.50
  YS02001767           JUNCTION     0.19     1.70     8.19     0  02:12        1.48
  YS02001770           JUNCTION     0.21     1.83     8.32     0  02:12        1.49
  YS02001774           JUNCTION     0.27     1.92     8.35     0  02:12        1.56
  YS02001779           JUNCTION     0.10     1.68     8.37     0  02:12        1.30
  YS02001783           JUNCTION     0.22     1.36     7.50     0  02:11        1.21
  YS02001784           JUNCTION     0.24     1.20     7.27     0  02:11        1.10
  YS02001786           JUNCTION     0.20     0.94     6.97     0  02:11        0.86
  YS02001788           JUNCTION     0.15     0.62     6.60     0  02:12        0.62
  YS02001790           JUNCTION     0.18     0.72     6.37     0  02:14        0.72
  YS02001791           JUNCTION     0.11     0.44     5.91     0  02:14        0.43
  YS02001793           JUNCTION     0.06     0.30     5.13     0  02:16        0.29
  YS02001882           JUNCTION     0.28     1.69     8.40     0  02:11        1.62
  YS02001884           JUNCTION     0.37     1.77     8.39     0  02:11        1.72
  YS02001887           JUNCTION     0.44     1.82     8.36     0  02:11        1.79
  YS02001890           JUNCTION     0.47     1.81     8.32     0  02:11        1.81
  YS02001895           JUNCTION     0.25     1.57     8.31     0  02:13        1.56
  YS02001898           JUNCTION     0.26     1.57     8.30     0  02:12        1.57
  YS02001901           JUNCTION     0.37     1.68     8.29     0  02:12        1.68
  YS02001904           JUNCTION     0.35     1.64     8.27     0  02:12        1.64
  YS02001907           JUNCTION     0.66     1.96     8.25     0  02:11        1.96
  YS02001910           JUNCTION     0.46     2.03     8.53     0  02:12        1.82
  YS02001915           JUNCTION     0.28     1.98     8.69     0  02:12        1.67
  YS02001918           JUNCTION     0.13     1.81     8.88     0  02:12        1.37
  YS02001920           JUNCTION     0.21     2.14     9.15     0  02:12        1.45
  YS02001923           JUNCTION     0.10     2.03     9.29     0  02:12        1.23
  YS02001926           JUNCTION     0.14     1.90     9.35     0  02:12        1.05
  YS02001929           JUNCTION     0.07     1.78     9.47     0  02:12        0.81
  YS02006553           JUNCTION     0.67     2.02     8.30     0  02:11        1.97
  YS02006556           JUNCTION     0.64     2.04     8.35     0  02:11        1.94
  YS02006558           JUNCTION     0.68     2.10     8.37     0  02:11        1.97
  YS02006561           JUNCTION     0.14     1.06     7.72     0  02:11        0.88
  YS02163301           JUNCTION     0.43     1.91     8.43     0  02:14        1.88
  YS02163601           JUNCTION     0.53     2.03     8.43     0  02:14        1.95
  YS02164001           JUNCTION     0.46     1.95     8.40     0  02:14        1.85
  YSB1154              JUNCTION     0.41     1.88    10.94     0  02:11        1.85
  YSB1171              JUNCTION     0.56     1.95    10.85     0  02:11        1.95
  YSB1174              JUNCTION     0.36     1.78    10.89     0  02:11        1.78
  YSB6556              JUNCTION     0.31     1.73    10.90     0  02:11        1.71
  CC-1                 OUTFALL      0.00     0.00     0.00     0  00:00        0.00
  CC-2                 OUTFALL      0.00     0.00     0.00     0  00:00        0.00
  JK-1                 OUTFALL      0.00     0.00     0.00     0  00:00        0.00
  JK-2                 OUTFALL      0.00     0.00     0.00     0  00:00        0.00
  WSC                  OUTFALL      0.29     0.51     1.18     0  02:19        0.51
  CC-storage           STORAGE      0.68     1.29     6.79     0  02:38        1.29
  JK-storage           STORAGE      1.45     4.22     5.02     0  02:15        4.20
  XR-storage           STORAGE      7.87     9.26     7.26     0  08:00        9.26
  
  
  *******************
  Node Inflow Summary
  *******************
  
  -------------------------------------------------------------------------------------------------
                                  Maximum  Maximum                  Lateral       Total        Flow
                                  Lateral    Total  Time of Max      Inflow      Inflow     Balance
                                   Inflow   Inflow   Occurrence      Volume      Volume       Error
  Node                 Type           LPS      LPS  days hr:min    10^6 ltr    10^6 ltr     Percent
  -------------------------------------------------------------------------------------------------
  HS02004478           JUNCTION      0.00  2238.84     0  02:14           0        6.84      -0.018
  HS02004479           JUNCTION      0.00   472.30     0  02:12           0       0.747       0.108
  HS02004480           JUNCTION      0.00  2108.43     0  02:10           0         5.3       0.043
  HS02004770           JUNCTION    992.25   992.25     0  02:14        1.72        1.95       0.156
  HS02004777           JUNCTION      0.03   746.05     0  02:09    0.000864         1.6       0.321
  HS02004785           JUNCTION      0.15   754.20     0  02:08     0.00432         1.6       0.010
  HS02004788           JUNCTION    362.55   845.08     0  02:09       0.689        2.29      -0.010
  HS02004792           JUNCTION   1191.39  1903.75     0  02:14        2.21        4.49       0.003
  HS02004799           JUNCTION    237.51  1742.56     0  02:10       0.388        4.57       0.054
  HS02004802           JUNCTION      0.00   675.56     0  02:14           0        1.58       0.246
  HS02004807           JUNCTION    297.17   674.88     0  02:14       0.475        1.62       0.258
  HS02004817           JUNCTION      0.60   413.82     0  02:10      0.0173        1.21       1.371
  HS02004824           JUNCTION    378.75   656.68     0  02:10       0.837        1.38       0.041
  HS02004830           JUNCTION      0.15   659.92     0  02:09     0.00432       0.719       0.129
  HS02004837           JUNCTION    275.04   856.45     0  02:09       0.634        1.01       0.051
  HS02004842           JUNCTION      0.00   849.06     0  02:10           0       0.674       1.966
  HS02004848           JUNCTION    338.56  1085.91     0  02:11       0.778         1.3      -0.014
  HS02004852           JUNCTION      0.00  1079.31     0  02:11           0        1.17       0.017
  HS02004856           JUNCTION    120.69  1198.13     0  02:11       0.196        1.36       0.041
  HS02004862           JUNCTION    157.42  1283.37     0  02:12       0.334        1.69       0.015
  HS02004870           JUNCTION    161.43  1367.38     0  02:11        0.26        1.95       0.020
  HS02004876           JUNCTION    157.30  1393.27     0  02:11       0.269        2.22       0.036
  HS02004881           JUNCTION     87.93  1443.01     0  02:12       0.137        2.36       0.004
  HS02004901           JUNCTION    241.97   465.72     0  02:15       0.389       0.544       0.324
  WS02001211           JUNCTION      7.35   204.13     0  02:45       0.212        5.44       0.611
  WS02001212           JUNCTION      0.00   210.95     0  02:45           0        5.41       0.290
  WS02001213           JUNCTION      0.00   215.95     0  02:44           0        5.39       0.333
  WS02003059           JUNCTION      0.00   221.13     0  02:44           0        5.38       0.596
  WS02003060           JUNCTION     16.53  1467.57     0  02:16       0.476        13.4       0.111
  WS02003066           JUNCTION      0.00  1263.40     0  02:14           0        7.54       0.021
  WS02003067           JUNCTION      0.00  1263.98     0  02:14           0        7.55       0.059
  WS02003069           JUNCTION      0.32  1467.76     0  02:16     0.00922        13.4       0.117
  WS02003072           JUNCTION      0.00  1467.69     0  02:17           0        13.3       0.158
  WS02003073           JUNCTION      1.82  1469.65     0  02:18      0.0524        13.4       0.164
  WS02004138           JUNCTION      0.00   380.00     0  00:00           0        5.25       0.052
  WS02004139           JUNCTION      0.32   190.59     0  00:29     0.00924        5.26       0.508
  WS02004401           JUNCTION      0.00  1263.47     0  02:13           0        7.66       0.143
  WS02004402           JUNCTION      0.00  1263.65     0  02:13           0        7.65       0.144
  WS02004403           JUNCTION      0.00  1264.15     0  02:13           0        7.63       0.139
  WS02004404           JUNCTION      0.16  1264.06     0  02:14     0.00467        7.63       0.124
  WS02004405           JUNCTION      0.04  1264.59     0  02:13      0.0011        7.62       0.159
  WS02004406           JUNCTION      0.00  1264.06     0  02:13           0        7.61       0.286
  WS02004407           JUNCTION      0.00  1263.70     0  02:12           0        7.59       0.022
  WS02004409           JUNCTION      0.00  1264.29     0  02:14           0        7.59       0.043
  WS02004410           JUNCTION      0.00  1263.78     0  02:14           0        7.58       0.068
  WS02004411           JUNCTION      0.00  1263.92     0  02:14           0        7.58       0.083
  WS02004412           JUNCTION      0.00  1264.02     0  02:14           0        7.57       0.108
  WS02004413           JUNCTION      0.00  1263.82     0  02:14           0        7.56       0.189
  WS02006109           JUNCTION      1.23  1257.35     0  02:14      0.0354         7.5       0.154
  WS02006110           JUNCTION      0.00  1122.49     0  02:24           0        7.38       0.115
  WS02006111           JUNCTION      0.00  1122.45     0  02:24           0        7.37       0.016
  WS02006112           JUNCTION    196.82  1263.58     0  02:13        0.32        7.69       0.270
  WS02006113           JUNCTION      0.00  1122.60     0  02:24           0        7.37       0.033
  WS02006115           JUNCTION      0.00  1263.56     0  02:13           0        7.67       0.097
  WS02006116           JUNCTION      0.00  1263.89     0  02:13           0        7.66       0.061
  WS02006228           JUNCTION      0.00  1255.99     0  02:14           0        7.46       0.069
  WS02006229           JUNCTION      0.00  2241.00     0  02:14           0        9.04       0.098
  WS02006230           JUNCTION     10.28   993.71     0  02:14       0.296        3.81       0.264
  WS02006231           JUNCTION      0.00   535.53     0  03:45           0        2.96      -0.105
  WS02006232           JUNCTION      0.00   535.83     0  03:45           0        2.97       0.256
  WS02006234           JUNCTION      0.00   536.25     0  03:45           0        2.95      -0.439
  WS02006235           JUNCTION      0.00   537.01     0  03:45           0        3.01       0.526
  WS02006238           JUNCTION      0.00   425.36     0  03:43           0        2.71      -0.219
  WS02006239           JUNCTION      0.00   425.13     0  03:43           0        2.64      -0.098
  WS02006240           JUNCTION      0.00   425.46     0  03:43           0         2.6      -0.024
  WS02006242           JUNCTION      0.00   425.81     0  03:43           0        2.59       0.029
  WS02006243           JUNCTION      0.00   426.02     0  03:43           0        2.32      -0.294
  WS02006245           JUNCTION      0.00   426.09     0  03:43           0        2.33       0.542
  WS02006247           JUNCTION      0.00   426.01     0  03:43           0        2.33       0.015
  WS02006248           JUNCTION      0.00   425.58     0  03:43           0        2.53      -0.096
  WS02006249           JUNCTION      0.00  1326.79     0  02:13           0        4.87       0.195
  WS02006251           JUNCTION      0.08  1469.98     0  02:12     0.00222        4.92      -0.014
  WS02006252           JUNCTION      0.00   400.00     0  00:00           0        2.61      -0.561
  WS02006253           JUNCTION     23.42  1467.76     0  02:12      0.0333        2.44       0.049
  WS02006256           JUNCTION      0.00   300.00     0  00:00           0       0.759      -3.950
  WS02006280           JUNCTION      0.00  2239.92     0  02:14           0        6.83       0.010
  WS02006284           JUNCTION      0.10  2239.11     0  02:14     0.00275        6.83       0.004
  WS02006287           JUNCTION      0.00  2241.96     0  02:14           0        6.83       0.012
  WSF200               JUNCTION      0.00  1263.42     0  02:14           0        7.54       0.010
  YS02001580           JUNCTION      0.00   121.04     0  02:08           0     0.00423      -1.678
  YS02001583           JUNCTION      0.00   164.18     0  02:08           0      0.0152      -5.431
  YS02001586           JUNCTION    431.21   431.30     0  02:16        1.07        1.08       0.120
  YS02001590           JUNCTION      0.00   318.32     0  02:21           0        1.01      -0.033
  YS02001593           JUNCTION      0.00   318.17     0  02:16           0        1.01       0.010
  YS02001596           JUNCTION      0.00   318.19     0  02:16           0        1.01      -0.006
  YS02001600           JUNCTION      0.00   318.01     0  02:16           0        1.01       0.009
  YS02001601           JUNCTION    791.44  1108.96     0  02:14        1.53        2.54       0.030
  YS02001602           JUNCTION      0.00   517.35     0  02:08           0        1.91       0.021
  YS02001605           JUNCTION      0.00   517.85     0  02:08           0        1.85       0.022
  YS02001607           JUNCTION      0.00   517.77     0  02:08           0        1.85       0.110
  YS02001610           JUNCTION      0.00   518.90     0  02:07           0        1.85       0.128
  YS02001613           JUNCTION      0.00   521.68     0  02:07           0        1.69       0.107
  YS02001616           JUNCTION      0.00   519.12     0  02:08           0        1.69       0.029
  YS02001619           JUNCTION    763.35   934.97     0  02:11         1.7        3.39       0.003
  YS02001622           JUNCTION      0.00   933.44     0  02:11           0        3.39       0.006
  YS02001625           JUNCTION      0.00   933.14     0  02:11           0        3.39       0.262
  YS02001629           JUNCTION      0.00   931.39     0  02:11           0        3.15       0.028
  YS02001633           JUNCTION    593.31  1405.30     0  02:11        1.11        4.25       0.082
  YS02001641           JUNCTION      0.00  1398.70     0  02:11           0        4.25       0.069
  YS02001644           JUNCTION    531.86  1833.50     0  02:11       0.955         5.2       0.065
  YS02001647           JUNCTION      0.00  1835.64     0  02:11           0        5.19       0.005
  YS02001649           JUNCTION      0.00  2111.95     0  02:11           0        6.05       0.005
  YS02001652           JUNCTION      0.00   578.23     0  02:16           0       0.859      -0.104
  YS02001655           JUNCTION      0.15   578.81     0  02:16     0.00443        0.86       0.065
  YS02001658           JUNCTION      0.00   669.92     0  02:14           0       0.855      -0.109
  YS02001661           JUNCTION      0.00   524.91     0  02:13           0       0.855       0.037
  YS02001664           JUNCTION    517.85   517.85     0  02:14       0.855       0.855      -0.005
  YS02001745           JUNCTION    336.19   336.19     0  02:14        0.53        0.53       0.255
  YS02001748           JUNCTION      0.04   500.88     0  02:16      0.0013        0.53      -0.341
  YS02001751           JUNCTION      0.01   482.84     0  02:16    0.000317       0.535       0.144
  YS02001754           JUNCTION      0.26   386.99     0  02:15     0.00749       0.544      -0.331
  YS02001757           JUNCTION      0.00  3294.50     0  02:14           0        8.46       0.077
  YS02001759           JUNCTION    465.07  1179.64     0  02:12       0.729        1.87      -0.010
  YS02001762           JUNCTION      0.00   710.16     0  02:12           0        1.14       0.017
  YS02001765           JUNCTION      0.00   701.01     0  02:12           0        1.14       0.014
  YS02001767           JUNCTION      0.54   692.82     0  02:12      0.0154        1.14       0.007
  YS02001770           JUNCTION    658.77   687.86     0  02:13        1.12        1.16       0.007
  YS02001774           JUNCTION      0.00   294.86     0  02:12           0      0.0586       1.970
  YS02001779           JUNCTION      0.01   297.02     0  02:12    0.000144      0.0171      -4.639
  YS02001783           JUNCTION      0.00  1153.69     0  02:12           0         3.2       0.007
  YS02001784           JUNCTION      1.06  1155.25     0  02:13      0.0305        3.23       0.015
  YS02001786           JUNCTION      0.06  1154.70     0  02:13     0.00162        3.23       0.019
  YS02001788           JUNCTION      0.07  1154.96     0  02:13     0.00204        3.23       0.009
  YS02001790           JUNCTION      0.15  1165.73     0  02:13     0.00446        3.24       0.017
  YS02001791           JUNCTION      0.00  1287.11     0  02:14           0        3.24      -0.015
  YS02001793           JUNCTION      0.00  1239.62     0  02:17           0        3.24       0.007
  YS02001882           JUNCTION      0.00    45.43     0  02:10           0      0.0123       4.481
  YS02001884           JUNCTION      0.00    73.55     0  02:09           0      0.0479       5.388
  YS02001887           JUNCTION    510.60   512.03     0  02:13       0.774       0.807       0.566
  YS02001890           JUNCTION      0.00   511.10     0  02:13           0       0.767       0.667
  YS02001895           JUNCTION      0.00   502.81     0  02:14           0       0.759       0.181
  YS02001898           JUNCTION      0.00   502.30     0  02:13           0       0.758       0.046
  YS02001901           JUNCTION      0.00   502.53     0  02:13           0        0.76       0.416
  YS02001904           JUNCTION      0.00   502.98     0  02:13           0       0.764       0.373
  YS02001907           JUNCTION      0.00  1505.09     0  02:13           0        2.47       0.726
  YS02001910           JUNCTION      0.00  1013.34     0  02:13           0        1.71       0.418
  YS02001915           JUNCTION    577.52  1012.77     0  02:13        1.07        1.75       0.087
  YS02001918           JUNCTION      0.00   449.69     0  02:13           0       0.712       0.020
  YS02001920           JUNCTION      2.87   448.69     0  02:13      0.0827       0.695       0.095
  YS02001923           JUNCTION      0.04   410.00     0  02:12     0.00109       0.596      -0.135
  YS02001926           JUNCTION      0.05   608.56     0  02:12      0.0015       0.575       0.004
  YS02001929           JUNCTION    278.98   389.71     0  02:12       0.561       0.563      -0.107
  YS02006553           JUNCTION      0.00   792.03     0  02:24           0        2.12       0.562
  YS02006556           JUNCTION      0.00   792.15     0  02:24           0        2.13       0.377
  YS02006558           JUNCTION    674.12  1157.47     0  02:11        1.13        3.23       0.111
  YS02006561           JUNCTION      0.00  1157.78     0  02:11           0         3.2      -0.003
  YS02163301           JUNCTION      0.00   932.02     0  02:11           0        3.15       0.052
  YS02163601           JUNCTION      0.11  1403.95     0  02:11     0.00317        4.25       0.116
  YS02164001           JUNCTION      0.00  1401.71     0  02:11           0        4.25       0.056
  YSB1154              JUNCTION    271.83   271.83     0  02:14       0.464       0.465       0.312
  YSB1171              JUNCTION      0.00   507.74     0  02:13           0       0.824       0.748
  YSB1174              JUNCTION    239.83   239.83     0  02:13       0.352       0.352       0.354
  YSB6556              JUNCTION      0.00   272.06     0  02:14           0       0.466       0.228
  CC-1                 OUTFALL       0.00   683.00     0  00:00           0         3.6       0.000
  CC-2                 OUTFALL       0.00   683.00     0  00:00           0        3.12       0.000
  JK-1                 OUTFALL       0.00  1000.00     0  00:00           0        2.11       0.000
  JK-2                 OUTFALL       0.00  1000.00     0  00:00           0       0.503       0.000
  WSC                  OUTFALL       0.00  1469.81     0  02:19           0        13.3       0.000
  CC-storage           STORAGE       0.00  3297.28     0  02:14           0        10.7      -0.280
  JK-storage           STORAGE       0.00  1219.02     0  02:22           0        3.39      -0.514
  XR-storage           STORAGE     200.00   200.00     0  00:00        5.76        6.36       0.001
  
  
  **********************
  Node Surcharge Summary
  **********************
  
  Surcharging occurs when water rises above the top of the highest conduit.
  ---------------------------------------------------------------------
                                               Max. Height   Min. Depth
                                   Hours       Above Crown    Below Rim
  Node                 Type      Surcharged         Meters       Meters
  ---------------------------------------------------------------------
  HS02004478           JUNCTION        0.30          0.674        0.266
  HS02004479           JUNCTION        0.42          0.906        0.144
  HS02004480           JUNCTION        0.45          0.980        0.120
  HS02004770           JUNCTION        0.37          0.720        0.000
  HS02004777           JUNCTION        0.37          0.780        0.000
  HS02004785           JUNCTION        0.32          0.790        0.000
  HS02004788           JUNCTION        0.31          0.720        0.000
  HS02004792           JUNCTION        0.42          0.900        0.000
  HS02004799           JUNCTION        0.53          1.060        0.000
  HS02004802           JUNCTION        0.46          1.096        0.114
  HS02004807           JUNCTION        0.44          1.220        0.000
  HS02004817           JUNCTION        0.97          1.738        0.002
  HS02004824           JUNCTION        0.32          1.310        0.000
  HS02004830           JUNCTION        0.30          1.330        0.000
  HS02004837           JUNCTION        0.26          1.294        0.046
  HS02004842           JUNCTION        0.38          1.520        0.000
  HS02004848           JUNCTION        0.23          1.370        0.000
  HS02004852           JUNCTION        0.25          1.420        0.000
  HS02004856           JUNCTION        0.23          1.300        0.000
  HS02004862           JUNCTION        0.26          1.300        0.000
  HS02004870           JUNCTION        0.28          1.343        0.057
  HS02004876           JUNCTION        0.35          1.444        0.116
  HS02004881           JUNCTION        0.33          1.450        0.000
  HS02004901           JUNCTION        0.37          0.720        0.000
  WS02004401           JUNCTION        1.34          0.769        0.891
  WS02004402           JUNCTION        1.37          0.720        1.020
  WS02004403           JUNCTION        1.38          0.652        1.378
  WS02004404           JUNCTION        1.58          0.664        2.116
  WS02004405           JUNCTION        1.53          0.615        2.185
  WS02004406           JUNCTION        1.49          0.511        1.939
  WS02004409           JUNCTION        0.75          0.344        2.016
  WS02004410           JUNCTION        0.70          0.262        2.278
  WS02004411           JUNCTION        0.63          0.179        2.351
  WS02004412           JUNCTION        0.55          0.087        2.223
  WS02004413           JUNCTION        1.00          0.133        2.067
  WS02006109           JUNCTION        2.11          1.820        0.000
  WS02006110           JUNCTION        1.66          1.449        0.401
  WS02006111           JUNCTION        0.95          0.836        1.034
  WS02006112           JUNCTION        1.79          1.257        0.423
  WS02006113           JUNCTION        0.96          0.957        0.973
  WS02006115           JUNCTION        1.21          0.841        1.409
  WS02006116           JUNCTION        1.24          0.791        1.499
  WS02006228           JUNCTION        2.10          2.200        0.000
  WS02006229           JUNCTION        0.68          1.046        0.024
  WS02006230           JUNCTION        1.58          1.570        0.000
  WS02006231           JUNCTION        1.62          1.484        0.046
  WS02006232           JUNCTION        1.87          1.480        0.000
  WS02006234           JUNCTION        1.69          1.240        0.000
  WS02006235           JUNCTION        1.74          1.235        0.055
  WS02006238           JUNCTION        1.78          1.231        0.199
  WS02006239           JUNCTION        1.70          1.091        0.199
  WS02006240           JUNCTION        1.69          0.998        0.392
  WS02006242           JUNCTION        1.78          0.820        0.000
  WS02006243           JUNCTION        1.65          0.770        0.000
  WS02006245           JUNCTION        1.62          0.602        0.248
  WS02006247           JUNCTION        1.62          0.550        0.210
  WS02006248           JUNCTION        1.58          0.380        0.000
  WS02006249           JUNCTION        1.59          0.390        0.000
  WS02006251           JUNCTION        1.47          1.180        0.000
  WS02006252           JUNCTION        1.83          1.100        0.000
  WS02006253           JUNCTION        1.49          2.480        0.000
  WS02006256           JUNCTION        7.18          2.050        0.000
  WS02006280           JUNCTION        0.55          0.688        0.092
  WS02006284           JUNCTION        0.48          0.677        0.123
  WS02006287           JUNCTION        0.40          0.754        0.136
  YS02001580           JUNCTION        0.36          0.450        0.000
  YS02001583           JUNCTION        0.37          0.500        0.000
  YS02001586           JUNCTION        0.49          0.510        0.000
  YS02001590           JUNCTION        0.55          0.738        0.012
  YS02001593           JUNCTION        0.56          0.672        0.168
  YS02001596           JUNCTION        0.66          0.927        0.143
  YS02001600           JUNCTION        0.80          1.186        0.004
  YS02001601           JUNCTION        1.17          1.440        0.000
  YS02001602           JUNCTION        1.05          1.270        0.000
  YS02001605           JUNCTION        0.99          1.176        0.004
  YS02001607           JUNCTION        0.50          0.645        0.035
  YS02001610           JUNCTION        0.53          0.680        0.000
  YS02001613           JUNCTION        0.50          0.656        0.044
  YS02001616           JUNCTION        0.46          0.592        0.018
  YS02001619           JUNCTION        0.45          0.576        0.034
  YS02001622           JUNCTION        0.44          0.560        0.060
  YS02001625           JUNCTION        0.61          0.780        0.000
  YS02001629           JUNCTION        0.39          0.470        0.000
  YS02001633           JUNCTION        0.62          0.980        0.080
  YS02001641           JUNCTION        0.53          0.946        0.154
  YS02001644           JUNCTION        0.48          0.920        0.000
  YS02001647           JUNCTION        0.29          0.675        0.225
  YS02001649           JUNCTION        0.36          0.823        0.227
  YS02001652           JUNCTION        0.22          0.657        0.473
  YS02001655           JUNCTION        0.10          0.643        0.557
  YS02001658           JUNCTION        0.01          0.513        0.787
  YS02001751           JUNCTION        0.03          0.443        0.757
  YS02001754           JUNCTION        0.11          0.475        0.675
  YS02001757           JUNCTION        0.38          0.753        0.457
  YS02001759           JUNCTION        0.31          0.727        0.483
  YS02001762           JUNCTION        0.29          0.717        0.433
  YS02001765           JUNCTION        0.26          0.695        0.405
  YS02001767           JUNCTION        0.24          0.700        0.330
  YS02001770           JUNCTION        0.22          0.797        0.123
  YS02001774           JUNCTION        0.28          0.924        0.126
  YS02001779           JUNCTION        0.14          0.680        0.000
  YS02001783           JUNCTION        0.37          0.560        1.040
  YS02001784           JUNCTION        0.35          0.400        1.090
  YS02001786           JUNCTION        0.25          0.138        1.292
  YS02001882           JUNCTION        0.32          0.688        0.142
  YS02001884           JUNCTION        0.33          0.713        0.157
  YS02001887           JUNCTION        0.36          0.775        0.175
  YS02001890           JUNCTION        0.37          0.760        0.000
  YS02001895           JUNCTION        0.31          0.565        0.185
  YS02001898           JUNCTION        0.30          0.539        0.201
  YS02001901           JUNCTION        0.35          0.681        0.189
  YS02001904           JUNCTION        0.34          0.638        0.212
  YS02001907           JUNCTION        0.57          0.950        0.000
  YS02001910           JUNCTION        0.39          1.027        0.073
  YS02001915           JUNCTION        0.32          0.976        0.024
  YS02001918           JUNCTION        0.24          0.810        0.000
  YS02001920           JUNCTION        0.25          1.140        0.000
  YS02001923           JUNCTION        0.01          0.820        0.000
  YS02001926           JUNCTION        0.01          0.900        0.000
  YS02001929           JUNCTION        0.01          0.780        0.000
  YS02006553           JUNCTION        0.58          1.017        0.173
  YS02006556           JUNCTION        0.48          1.004        0.346
  YS02006558           JUNCTION        0.47          0.999        0.401
  YS02006561           JUNCTION        0.20          0.263        0.887
  YS02163301           JUNCTION        0.60          0.911        0.119
  YS02163601           JUNCTION        0.65          1.027        0.053
  YS02164001           JUNCTION        0.54          0.946        0.154
  YSB1154              JUNCTION        0.63          1.180        0.220
  YSB1171              JUNCTION        0.64          1.100        0.000
  YSB1174              JUNCTION        0.57          1.085        0.165
  YSB6556              JUNCTION        0.51          1.035        0.065
  
  
  *********************
  Node Flooding Summary
  *********************
  
  Flooding refers to all water that overflows a node, whether it ponds or not.
  --------------------------------------------------------------------------
                                                             Total   Maximum
                                 Maximum   Time of Max       Flood    Ponded
                        Hours       Rate    Occurrence      Volume     Depth
  Node                 Flooded       LPS   days hr:min    10^6 ltr    Meters
  --------------------------------------------------------------------------
  HS02004770              0.20    452.92      0  02:13       0.192     0.000
  HS02004777              0.01     29.13      0  02:09       0.000     0.000
  HS02004785              0.01     34.82      0  02:09       0.000     0.000
  HS02004788              0.01    230.13      0  02:09       0.002     0.000
  HS02004792              0.20    759.80      0  02:14       0.314     0.000
  HS02004799              0.05     82.99      0  02:12       0.004     0.000
  HS02004807              0.01     21.12      0  02:12       0.000     0.000
  HS02004824              0.01      7.50      0  02:12       0.000     0.000
  HS02004830              0.01      5.11      0  02:12       0.000     0.000
  HS02004842              0.01    125.68      0  02:12       0.001     0.000
  HS02004848              0.01     65.24      0  02:12       0.000     0.000
  HS02004852              0.01    116.54      0  02:12       0.000     0.000
  HS02004856              0.01     38.43      0  02:12       0.000     0.000
  HS02004862              0.01    112.63      0  02:12       0.001     0.000
  HS02004881              0.01     72.25      0  02:12       0.000     0.000
  HS02004901              0.26    465.72      0  02:15       0.316     0.000
  WS02006109              0.25    190.61      0  02:14       0.101     0.000
  WS02006230              0.49    540.79      0  02:14       0.580     0.000
  WS02006232              0.13      1.44      0  02:10       0.000     0.000
  WS02006234              0.52    129.12      0  02:17       0.147     0.000
  WS02006242              0.60    137.64      0  02:12       0.253     0.000
  WS02006243              0.01     85.70      0  01:52       0.000     0.000
  WS02006248              0.95    340.17      0  02:07       0.901     0.000
  WS02006249              1.45   1265.59      0  02:13       3.034     0.000
  WS02006251              0.01     69.06      0  02:12       0.000     0.000
  WS02006252              0.25    384.68      0  02:15       0.141     0.000
  WS02006253              0.01     69.74      0  02:12       0.000     0.000
  WS02006256              0.70    293.19      0  00:00       0.356     0.000
  YS02001580              0.01    104.82      0  02:08       0.000     0.000
  YS02001583              0.01     58.30      0  02:08       0.000     0.000
  YS02001586              0.25    113.80      0  02:16       0.059     0.000
  YS02001601              0.42    711.12      0  02:14       0.629     0.000
  YS02001602              0.30     62.09      0  02:17       0.058     0.000
  YS02001610              0.24    267.71      0  02:16       0.157     0.000
  YS02001625              0.20    660.55      0  02:15       0.234     0.000
  YS02001629              0.01     18.02      0  02:14       0.000     0.000
  YS02001644              0.01     18.22      0  02:14       0.000     0.000
  YS02001779              0.01    213.51      0  02:12       0.001     0.000
  YS02001890              0.04     29.94      0  02:11       0.002     0.000
  YS02001907              0.19   1022.02      0  02:13       0.336     0.000
  YS02001918              0.01    136.47      0  02:12       0.002     0.000
  YS02001920              0.01     47.71      0  02:12       0.000     0.000
  YS02001923              0.01    106.20      0  02:12       0.000     0.000
  YS02001926              0.01    504.63      0  02:12       0.001     0.000
  YS02001929              0.01    289.42      0  02:12       0.002     0.000
  YSB1171                 0.11    303.39      0  02:14       0.078     0.000
  
  
  **********************
  Storage Volume Summary
  **********************
  
  --------------------------------------------------------------------------------------------------
                         Average     Avg  Evap Exfil       Maximum     Max    Time of Max    Maximum
                          Volume    Pcnt  Pcnt  Pcnt        Volume    Pcnt     Occurrence    Outflow
  Storage Unit           1000 m3    Full  Loss  Loss       1000 m3    Full    days hr:min        LPS
  --------------------------------------------------------------------------------------------------
  CC-storage               1.908      30     0     0         3.594      56       0  02:38    1783.53
  JK-storage               0.073      25     0     0         0.212      73       0  02:15    2300.00
  XR-storage               0.944      66     0     0         1.111      77       0  08:00     380.00
  
  
  ***********************
  Outfall Loading Summary
  ***********************
  
  -----------------------------------------------------------
                         Flow       Avg       Max       Total
                         Freq      Flow      Flow      Volume
  Outfall Node           Pcnt       LPS       LPS    10^6 ltr
  -----------------------------------------------------------
  CC-1                  30.80    683.00    683.00       3.599
  CC-2                  26.44    683.00    683.00       3.121
  JK-1                  11.48   1000.00   1000.00       2.108
  JK-2                   2.74   1000.00   1000.00       0.503
  WSC                   99.95    605.06   1469.81      13.348
  -----------------------------------------------------------
  System                34.28   3971.06   4746.27      22.678
  
  
  ********************
  Link Flow Summary
  ********************
  
  -----------------------------------------------------------------------------
                                 Maximum  Time of Max   Maximum    Max/    Max/
                                  |Flow|   Occurrence   |Veloc|    Full    Full
  Link                 Type          LPS  days hr:min     m/sec    Flow   Depth
  -----------------------------------------------------------------------------
  1                    CONDUIT   1469.81     0  02:19      3.68    0.51    0.51
  HS02004478WS02006287 CONDUIT   2241.96     0  02:14      2.61    0.63    1.00
  HS02004479HS02004480 CONDUIT    470.36     0  02:12      0.67    0.45    1.00
  HS02004480HS02004478 CONDUIT   2112.13     0  02:10      3.02    8.90    1.00
  HS02004770HS02004777 CONDUIT    746.02     0  02:09      1.07    1.36    1.00
  HS02004777HS02004785 CONDUIT    754.05     0  02:08      1.13    0.93    1.00
  HS02004785HS02004788 CONDUIT    623.43     0  02:09      1.35    4.70    1.00
  HS02004788HS02004792 CONDUIT    812.02     0  02:24      1.44    0.54    1.00
  HS02004792HS02004799 CONDUIT   1572.32     0  02:10      2.25    0.96    1.00
  HS02004799HS02004480 CONDUIT   1739.80     0  02:10      2.49    2.20    1.00
  HS02004802HS02004478 CONDUIT    675.53     0  02:14      0.97    0.60    1.00
  HS02004807HS02004802 CONDUIT    675.56     0  02:14      0.97    1.29    1.00
  HS02004817HS02004807 CONDUIT    413.22     0  02:10      0.59    0.24    1.00
  HS02004817HS02004824 CONDUIT    412.30     0  02:10      0.59    0.19    1.00
  HS02004824HS02004830 CONDUIT    659.77     0  02:09      0.96    0.86    1.00
  HS02004830HS02004837 CONDUIT    665.79     0  02:09      1.05    0.66    1.00
  HS02004837HS02004842 CONDUIT    849.06     0  02:10      1.21    0.51    1.00
  HS02004842HS02004848 CONDUIT    847.64     0  02:10      1.35    0.49    1.00
  HS02004848HS02004852 CONDUIT   1079.31     0  02:11      1.63    1.22    1.00
  HS02004852HS02004856 CONDUIT   1091.66     0  02:11      1.56    1.25    1.00
  HS02004856HS02004862 CONDUIT   1147.09     0  02:12      1.72    1.14    1.00
  HS02004862HS02004870 CONDUIT   1224.38     0  02:11      1.96    1.32    1.00
  HS02004870HS02004876 CONDUIT   1258.28     0  02:11      1.95    0.83    1.00
  HS02004876HS02004881 CONDUIT   1359.05     0  02:12      2.52   14.46    1.00
  HS02004881HS02006253 CONDUIT   1445.16     0  02:12      2.53    0.28    1.00
  HS02004901HS02004770 CONDUIT    264.87     0  02:21      0.38    1.00    1.00
  WS02001211WS02001212 CONDUIT    210.95     0  02:45      0.54    0.16    0.68
  WS02001212WS02001213 CONDUIT    215.95     0  02:44      1.04    0.33    0.55
  WS02001213WS02003059 CONDUIT    221.13     0  02:44      0.47    0.36    0.88
  WS02003059WS02003060 CONDUIT    227.04     0  02:44      0.66    0.15    0.80
  WS02003060WS02003069 CONDUIT   1467.44     0  02:16      2.07    0.57    0.60
  WS02003066WSF200     CONDUIT   1263.42     0  02:14      3.24    0.21    0.38
  WS02003067WS02003066 CONDUIT   1263.40     0  02:14      1.97    0.40    0.55
  WS02003069WS02003072 CONDUIT   1467.69     0  02:17      1.88    0.71    0.65
  WS02003072WS02003073 CONDUIT   1467.83     0  02:18      2.03    3.17    0.61
  WS02004138WS02004139 CONDUIT    190.27     0  00:29      2.15    0.04    0.41
  WS02004139WS02001211 CONDUIT    196.78     0  02:45      0.54    0.25    0.60
  WS02004401WS02004402 CONDUIT   1263.65     0  02:13      1.61    1.52    1.00
  WS02004402WS02004403 CONDUIT   1264.15     0  02:13      1.61    1.82    1.00
  WS02004403WS02004404 CONDUIT   1263.90     0  02:14      1.61    0.91    1.00
  WS02004404WS02004405 CONDUIT   1264.56     0  02:13      1.61   12.39    1.00
  WS02004405WS02004406 CONDUIT   1264.06     0  02:13      1.61    2.49    1.00
  WS02004406WS02004407 CONDUIT   1263.70     0  02:12      1.72    0.56    0.93
  WS02004407WS02004409 CONDUIT   1264.29     0  02:14      1.73    0.45    0.93
  WS02004409WS02004410 CONDUIT   1263.78     0  02:14      1.61    1.63    1.00
  WS02004410WS02004411 CONDUIT   1263.92     0  02:14      1.61    1.73    1.00
  WS02004411WS02004412 CONDUIT   1264.02     0  02:14      1.61    1.80    1.00
  WS02004412WS02004413 CONDUIT   1263.82     0  02:14      1.61    0.85    1.00
  WS02004413WS02003067 CONDUIT   1263.98     0  02:14      1.97    0.54    0.76
  WS02006109WS02006110 CONDUIT   1122.49     0  02:24      2.23    2.16    1.00
  WS02006110WS02006113 CONDUIT   1122.60     0  02:24      2.23    1.02    1.00
  WS02006111WS02006112 CONDUIT   1122.43     0  02:24      2.23    0.53    1.00
  WS02006112WS02006115 CONDUIT   1263.56     0  02:13      1.61    0.75    1.00
  WS02006113WS02006111 CONDUIT   1122.45     0  02:24      2.65    1.35    1.00
  WS02006115WS02006116 CONDUIT   1263.89     0  02:13      1.61    1.62    1.00
  WS02006116WS02004401 CONDUIT   1263.47     0  02:13      1.61    1.74    1.00
  WS02006228WS02006109 CONDUIT   1256.12     0  02:14      2.50    5.49    1.00
  WS02006229WS02006228 CONDUIT   1255.99     0  02:14      2.50    4.16    1.00
  WS02006230WS02006229 CONDUIT    983.43     0  02:14      2.56   21.89    1.00
  WS02006231WS02006230 CONDUIT    540.09     0  03:45      1.42    8.19    1.00
  WS02006232WS02006231 CONDUIT    535.53     0  03:45      1.39    1.12    1.00
  WS02006234WS02006232 CONDUIT    535.83     0  03:45      1.41    1.08    1.00
  WS02006235WS02006234 CONDUIT    536.25     0  03:45      1.39    5.66    1.00
  WS02006238WS02006235 CONDUIT    426.14     0  03:42      1.45    0.95    1.00
  WS02006239WS02006238 CONDUIT    425.36     0  03:43      1.12    1.36    1.00
  WS02006240WS02006239 CONDUIT    425.13     0  03:43      1.26    1.34    1.00
  WS02006242WS02006240 CONDUIT    425.46     0  03:43      1.14    1.69    1.00
  WS02006243WS02006242 CONDUIT    425.81     0  03:43      1.34    0.91    1.00
  WS02006245WS02006243 CONDUIT    426.02     0  03:43      1.39    1.26    1.00
  WS02006247WS02006245 CONDUIT    426.09     0  03:43      1.37    3.38    1.00
  WS02006248WS02006247 CONDUIT    426.01     0  03:43      1.38    0.93    1.00
  WS02006249WS02006248 CONDUIT    425.58     0  03:43      1.38    2.33    1.00
  WS02006251WS02006249 CONDUIT   1326.79     0  02:13      3.45    3.83    1.00
  WS02006252WS02006251 CONDUIT    415.60     0  02:00     25.71    1.53    1.00
  WS02006253WS02006251 CONDUIT   1469.90     0  02:12      3.82    4.41    1.00
  WS02006256WS02006235 CONDUIT    288.93     0  00:00      4.23    3.06    1.00
  WS02006280WS02006229 CONDUIT   2241.00     0  02:14      4.27    0.48    1.00
  WS02006284WS02006280 CONDUIT   2239.92     0  02:14      3.02    0.94    1.00
  WS02006287WS02006284 CONDUIT   2239.02     0  02:14      2.85    1.04    1.00
  WSF200WS02003060     CONDUIT   1263.37     0  02:14      2.29    0.28    0.49
  YS02001580YS02001583 CONDUIT    121.04     0  02:08      0.67    0.47    1.00
  YS02001583YS02001586 CONDUIT    159.45     0  02:08      0.68    0.24    1.00
  YS02001586YS02001590 CONDUIT    318.32     0  02:21      1.25    0.56    1.00
  YS02001590YS02001593 CONDUIT    318.17     0  02:16      1.13    2.00    1.00
  YS02001593YS02001596 CONDUIT    318.19     0  02:16      1.73    0.50    1.00
  YS02001596YS02001600 CONDUIT    318.01     0  02:16      1.21    0.62    1.00
  YS02001600YS02001601 CONDUIT    318.11     0  02:16      1.13    0.55    1.00
  YS02001601YS02001602 CONDUIT    517.35     0  02:08      1.83    1.87    1.00
  YS02001602YS02001605 CONDUIT    517.85     0  02:08      1.83   10.96    1.00
  YS02001605YS02001607 CONDUIT    517.77     0  02:08      1.83    2.84    1.00
  YS02001607YS02001610 CONDUIT    518.90     0  02:07      0.66    0.49    1.00
  YS02001610YS02001613 CONDUIT    521.68     0  02:07      0.66    0.60    1.00
  YS02001613YS02001616 CONDUIT    519.12     0  02:08      0.66    0.44    1.00
  YS02001616YS02001619 CONDUIT    501.63     0  02:08      0.67    0.87    1.00
  YS02001619YS02001622 CONDUIT    933.44     0  02:11      1.19    1.38    1.00
  YS02001622YS02001625 CONDUIT    933.14     0  02:11      1.19    0.50    1.00
  YS02001625YS02001629 CONDUIT    931.39     0  02:11      1.19    0.44    1.00
  YS02001629YS02163301 CONDUIT    932.02     0  02:11      1.19    1.15    1.00
  YS02001633YS02163601 CONDUIT   1403.84     0  02:11      1.79    1.47    1.00
  YS02001641YS02001644 CONDUIT   1397.90     0  02:11      1.78    4.52    1.00
  YS02001644YS02001647 CONDUIT   1835.64     0  02:11      2.34    1.08    1.00
  YS02001647YS02001649 CONDUIT   1846.34     0  02:11      2.38    0.97    1.00
  YS02001649YS02001757 CONDUIT   2116.10     0  02:11      2.70    1.28    1.00
  YS02001652YS02001649 CONDUIT    578.34     0  02:16      0.77    0.29    1.00
  YS02001655YS02001652 CONDUIT    578.23     0  02:16      1.30    0.28    1.00
  YS02001658YS02001655 CONDUIT    578.66     0  02:16      1.92    0.25    1.00
  YS02001661YS02001658 CONDUIT    669.92     0  02:14      2.36    0.26    0.84
  YS02001664YS02001661 CONDUIT    524.91     0  02:13      2.34    0.16    0.52
  YS02001745YS02001748 CONDUIT    500.84     0  02:16      2.24    0.19    0.61
  YS02001748YS02001751 CONDUIT    482.83     0  02:16      1.75    0.24    0.97
  YS02001751YS02001754 CONDUIT    386.73     0  02:15      1.46    0.19    1.00
  YS02001754YS02001757 CONDUIT    388.34     0  02:15      0.49    0.16    1.00
  YS02001757CaochengTiaoxuchi CONDUIT   3297.28     0  02:14      4.47    1.43    1.00
  YS02001759YS02001757 CONDUIT   1184.78     0  02:12      1.51    0.84    1.00
  YS02001762YS02001759 CONDUIT    718.50     0  02:12      0.91    0.83    1.00
  YS02001765YS02001762 CONDUIT    710.16     0  02:12      0.90    0.67    1.00
  YS02001767YS02001765 CONDUIT    701.01     0  02:12      0.89    0.88    1.00
  YS02001770YS02001767 CONDUIT    692.28     0  02:12      0.88    2.74    1.00
  YS02001774YS02001770 CONDUIT    294.86     0  02:12      0.38    0.19    1.00
  YS02001779YS02001774 CONDUIT    297.01     0  02:12      0.38    0.15    1.00
  YS02001783YS02001784 CONDUIT   1154.19     0  02:13      2.30    1.59    1.00
  YS02001784YS02001785 CONDUIT   1154.64     0  02:13      2.30    2.69    1.00
  YS02001786YS02001788 CONDUIT   1154.89     0  02:13      2.47    2.23    0.89
  YS02001788YS02001790 CONDUIT   1165.57     0  02:13      2.71    0.86    0.84
  YS02001790YS02001791 CONDUIT   1287.11     0  02:14      3.42    1.40    0.70
  YS02001791YS02001793 CONDUIT   1239.62     0  02:17      6.76    0.53    0.44
  YS02001793JiankangQianchi CONDUIT   1219.02     0  02:22      2.45    0.10    0.65
  YS02001882YS02001884 CONDUIT     45.43     0  02:10      0.10    0.05    1.00
  YS02001884YS02001887 CONDUIT     73.55     0  02:09      0.09    0.10    1.00
  YS02001887YS02001890 CONDUIT    511.10     0  02:13      0.65    0.87    1.00
  YS02001890YS02001895 CONDUIT    502.81     0  02:14      0.64    0.23    1.00
  YS02001895YS02001898 CONDUIT    502.30     0  02:13      0.64    0.87    1.00
  YS02001898YS02001901 CONDUIT    502.53     0  02:13      0.64    0.32    1.00
  YS02001901YS02001904 CONDUIT    502.98     0  02:13      0.64    0.78    1.00
  YS02001904YS02001907 CONDUIT    502.73     0  02:14      0.64    0.18    1.00
  YS02001907YS02006553 CONDUIT    792.03     0  02:24      0.88    0.93    1.00
  YS02001910YS02001907 CONDUIT   1013.52     0  02:13      1.29    0.57    1.00
  YS02001915YS02001910 CONDUIT   1013.34     0  02:13      1.29    0.50    1.00
  YS02001918YS02001915 CONDUIT    451.09     0  02:13      0.57    0.25    1.00
  YS02001920YS02001918 CONDUIT    449.69     0  02:13      0.65    0.43    1.00
  YS02001923YS02001920 CONDUIT    445.82     0  02:13      0.69    0.20    1.00
  YS02001926YS02001923 CONDUIT    416.60     0  02:12      0.96    0.59    1.00
  YS02001929YS02001926 CONDUIT    406.57     0  02:12      1.13    0.19    1.00
  YS02006553YS02006556 CONDUIT    792.15     0  02:24      1.01    0.68    1.00
  YS02006556YS02006558 CONDUIT    793.93     0  02:24      1.01    0.63    1.00
  YS02006558YS02006561 CONDUIT   1157.78     0  02:11      4.09    2.56    1.00
  YS02006561YS02001783 CONDUIT   1153.69     0  02:12      2.30    0.60    1.00
  YS02163301YS02001633 CONDUIT    931.66     0  02:11      1.19    0.88    1.00
  YS02163601YS02164001 CONDUIT   1401.71     0  02:11      1.78    1.24    1.00
  YS02164001YS02001641 CONDUIT   1398.70     0  02:11      1.78    1.91    1.00
  YSB1154YSB6556       CONDUIT    272.06     0  02:14      0.71    0.49    1.00
  YSB1171HS02004479    CONDUIT    472.30     0  02:12      0.94    0.31    1.00
  YSB1174YSB1171       CONDUIT    240.35     0  02:13      0.62    0.37    1.00
  YSB6556YSB1171       CONDUIT    272.07     0  02:14      0.71    0.28    1.00
  CC-R1                PUMP       683.00     0  00:00              1.00
  CC-R2                PUMP       683.00     0  00:00              1.00
  CC-S1                PUMP       200.00     0  00:00              1.00
  CC-S2                PUMP       200.00     0  00:00              1.00
  JK-R1                PUMP      1000.00     0  00:00              1.00
  JK-R2                PUMP      1000.00     0  00:00              1.00
  JK-S                 PUMP       300.00     0  00:00              1.00
  XR-1                 PUMP        95.00     0  00:00              1.00
  XR-2                 PUMP        95.00     0  00:00              1.00
  XR-3                 PUMP        95.00     0  00:00              1.00
  XR-4                 PUMP        95.00     0  00:00              1.00
  
  
  ***************************
  Flow Classification Summary
  ***************************
  
  -------------------------------------------------------------------------------------
                      Adjusted    ---------- Fraction of Time in Flow Class ---------- 
                       /Actual         Up    Down  Sub   Sup   Up    Down  Norm  Inlet 
  Conduit               Length    Dry  Dry   Dry   Crit  Crit  Crit  Crit  Ltd   Ctrl  
  -------------------------------------------------------------------------------------
  1                       1.00   0.00  0.00  0.00  0.00  1.00  0.00  0.00  0.30  0.00
  HS02004478WS02006287    1.00   0.10  0.00  0.00  0.58  0.32  0.00  0.00  0.61  0.00
  HS02004479HS02004480    1.00   0.04  0.00  0.00  0.96  0.00  0.00  0.00  0.12  0.00
  HS02004480HS02004478    1.00   0.09  0.00  0.00  0.47  0.00  0.00  0.45  0.00  0.00
  HS02004770HS02004777    1.00   0.00  0.09  0.00  0.91  0.00  0.00  0.00  0.03  0.00
  HS02004777HS02004785    1.00   0.00  0.00  0.00  1.00  0.00  0.00  0.00  0.13  0.00
  HS02004785HS02004788    1.00   0.00  0.00  0.00  1.00  0.00  0.00  0.00  0.00  0.00
  HS02004788HS02004792    1.00   0.00  0.00  0.00  0.99  0.01  0.00  0.00  0.93  0.00
  HS02004792HS02004799    1.00   0.00  0.00  0.00  0.99  0.01  0.00  0.00  0.89  0.00
  HS02004799HS02004480    1.00   0.00  0.04  0.00  0.90  0.00  0.06  0.00  0.00  0.00
  HS02004802HS02004478    1.00   0.09  0.00  0.00  0.91  0.00  0.00  0.00  0.03  0.00
  HS02004807HS02004802    1.00   0.09  0.00  0.00  0.90  0.00  0.00  0.01  0.00  0.00
  HS02004817HS02004807    1.00   0.00  0.09  0.00  0.91  0.00  0.00  0.00  0.01  0.00
  HS02004817HS02004824    1.00   0.00  0.00  0.00  1.00  0.00  0.00  0.00  0.85  0.00
  HS02004824HS02004830    1.00   0.00  0.00  0.00  1.00  0.00  0.00  0.00  0.01  0.00
  HS02004830HS02004837    1.00   0.00  0.00  0.00  1.00  0.00  0.00  0.00  0.91  0.00
  HS02004837HS02004842    1.00   0.00  0.00  0.00  1.00  0.00  0.00  0.00  0.11  0.00
  HS02004842HS02004848    1.00   0.00  0.09  0.00  0.91  0.00  0.00  0.00  0.57  0.00
  HS02004848HS02004852    1.00   0.09  0.00  0.00  0.91  0.00  0.00  0.00  0.71  0.00
  HS02004852HS02004856    1.00   0.09  0.01  0.00  0.91  0.00  0.00  0.00  0.70  0.00
  HS02004856HS02004862    1.00   0.00  0.11  0.00  0.89  0.00  0.00  0.00  0.76  0.00
  HS02004862HS02004870    1.00   0.00  0.00  0.00  1.00  0.00  0.00  0.00  0.04  0.00
  HS02004870HS02004876    1.00   0.00  0.00  0.00  0.98  0.01  0.00  0.00  0.88  0.00
  HS02004876HS02004881    1.00   0.02  0.00  0.00  0.76  0.22  0.00  0.00  0.00  0.00
  HS02004881HS02006253    1.00   0.03  0.03  0.00  0.45  0.04  0.00  0.46  0.21  0.00
  HS02004901HS02004770    1.00   0.09  0.00  0.00  0.91  0.00  0.00  0.00  0.00  0.00
  WS02001211WS02001212    1.00   0.00  0.03  0.00  0.97  0.00  0.00  0.00  0.00  0.00
  WS02001212WS02001213    1.00   0.03  0.00  0.00  0.48  0.00  0.49  0.00  0.00  0.00
  WS02001213WS02003059    1.00   0.00  0.00  0.00  0.99  0.00  0.00  0.00  0.00  0.00
  WS02003059WS02003060    1.00   0.00  0.00  0.00  1.00  0.00  0.00  0.00  0.03  0.00
  WS02003060WS02003069    1.00   0.00  0.00  0.00  0.99  0.01  0.00  0.00  0.53  0.00
  WS02003066WSF200        1.00   0.05  0.00  0.00  0.00  0.95  0.00  0.00  0.70  0.00
  WS02003067WS02003066    1.00   0.05  0.00  0.00  0.95  0.00  0.00  0.00  0.00  0.00
  WS02003069WS02003072    1.00   0.00  0.00  0.00  1.00  0.00  0.00  0.00  0.68  0.00
  WS02003072WS02003073    1.00   0.00  0.00  0.00  0.00  0.00  0.00  1.00  0.00  0.00
  WS02004138WS02004139    1.00   0.00  0.01  0.00  0.97  0.01  0.00  0.01  0.98  0.00
  WS02004139WS02001211    1.00   0.00  0.00  0.00  0.99  0.00  0.00  0.00  0.00  0.00
  WS02004401WS02004402    1.00   0.03  0.00  0.00  0.97  0.00  0.00  0.00  0.00  0.00
  WS02004402WS02004403    1.00   0.03  0.00  0.00  0.97  0.00  0.00  0.00  0.00  0.00
  WS02004403WS02004404    1.00   0.00  0.03  0.00  0.97  0.00  0.00  0.00  0.00  0.00
  WS02004404WS02004405    1.00   0.00  0.00  0.00  1.00  0.00  0.00  0.00  0.01  0.00
  WS02004405WS02004406    1.00   0.00  0.00  0.00  1.00  0.00  0.00  0.00  0.00  0.00
  WS02004406WS02004407    1.00   0.00  0.04  0.00  0.96  0.00  0.00  0.00  0.00  0.00
  WS02004407WS02004409    1.00   0.04  0.00  0.00  0.95  0.01  0.00  0.00  0.87  0.00
  WS02004409WS02004410    1.00   0.04  0.00  0.00  0.96  0.00  0.00  0.00  0.00  0.00
  WS02004410WS02004411    1.00   0.04  0.00  0.00  0.96  0.00  0.00  0.00  0.00  0.00
  WS02004411WS02004412    1.00   0.04  0.00  0.00  0.96  0.00  0.00  0.00  0.00  0.00
  WS02004412WS02004413    1.00   0.04  0.00  0.00  0.95  0.00  0.00  0.00  0.00  0.00
  WS02004413WS02003067    1.00   0.04  0.01  0.00  0.00  0.00  0.95  0.00  0.00  0.00
  WS02006109WS02006110    1.00   0.00  0.01  0.00  0.98  0.00  0.01  0.00  0.00  0.00
  WS02006110WS02006113    1.00   0.01  0.01  0.00  0.98  0.00  0.00  0.00  0.00  0.00
  WS02006111WS02006112    1.00   0.02  0.00  0.00  0.97  0.00  0.00  0.00  0.79  0.00
  WS02006112WS02006115    1.00   0.02  0.01  0.00  0.97  0.00  0.01  0.00  0.00  0.00
  WS02006113WS02006111    1.00   0.02  0.00  0.00  0.23  0.75  0.00  0.00  0.07  0.00
  WS02006115WS02006116    1.00   0.02  0.00  0.00  0.97  0.00  0.00  0.01  0.00  0.00
  WS02006116WS02004401    1.00   0.03  0.00  0.00  0.97  0.00  0.00  0.00  0.00  0.00
  WS02006228WS02006109    1.00   0.00  0.00  0.00  1.00  0.00  0.00  0.00  0.00  0.00
  WS02006229WS02006228    1.00   0.00  0.00  0.00  0.99  0.00  0.00  0.01  0.00  0.00
  WS02006230WS02006229    1.00   0.00  0.00  0.00  0.99  0.00  0.00  0.01  0.03  0.00
  WS02006231WS02006230    1.00   0.00  0.00  0.00  0.54  0.00  0.46  0.00  0.00  0.00
  WS02006232WS02006231    1.00   0.00  0.00  0.00  0.99  0.00  0.01  0.00  0.00  0.00
  WS02006234WS02006232    1.00   0.00  0.00  0.00  1.00  0.00  0.00  0.00  0.06  0.00
  WS02006235WS02006234    1.00   0.00  0.00  0.00  0.92  0.00  0.08  0.00  0.00  0.00
  WS02006238WS02006235    1.00   0.00  0.00  0.00  1.00  0.00  0.00  0.00  0.00  0.00
  WS02006239WS02006238    1.00   0.00  0.00  0.00  1.00  0.00  0.00  0.00  0.13  0.00
  WS02006240WS02006239    1.00   0.00  0.00  0.00  0.79  0.00  0.00  0.21  0.04  0.00
  WS02006242WS02006240    1.00   0.00  0.00  0.00  0.99  0.00  0.01  0.00  0.00  0.00
  WS02006243WS02006242    1.00   0.00  0.00  0.00  0.99  0.00  0.00  0.00  0.66  0.00
  WS02006245WS02006243    1.00   0.00  0.00  0.00  0.88  0.00  0.00  0.12  0.00  0.00
  WS02006247WS02006245    1.00   0.00  0.00  0.00  0.98  0.00  0.00  0.02  0.00  0.00
  WS02006248WS02006247    1.00   0.00  0.00  0.00  1.00  0.00  0.00  0.00  0.62  0.00
  WS02006249WS02006248    1.00   0.00  0.00  0.00  0.60  0.00  0.39  0.00  0.00  0.00
  WS02006251WS02006249    1.00   0.00  0.00  0.00  1.00  0.00  0.00  0.00  0.61  0.00
  WS02006252WS02006251    1.00   0.06  0.34  0.00  0.30  0.00  0.30  0.00  0.01  0.00
  WS02006253WS02006251    1.00   0.00  0.00  0.00  0.99  0.00  0.01  0.00  0.01  0.00
  WS02006256WS02006235    1.00   0.00  0.00  0.00  0.98  0.02  0.00  0.00  0.01  0.00
  WS02006280WS02006229    1.00   0.09  0.00  0.00  0.18  0.04  0.00  0.69  0.01  0.00
  WS02006284WS02006280    1.00   0.09  0.00  0.00  0.11  0.02  0.00  0.78  0.00  0.00
  WS02006287WS02006284    1.00   0.08  0.03  0.00  0.42  0.48  0.00  0.00  0.67  0.00
  WSF200WS02003060        1.00   0.00  0.05  0.00  0.48  0.47  0.00  0.00  0.66  0.00
  YS02001580YS02001583    1.00   0.27  0.48  0.00  0.25  0.00  0.00  0.00  0.67  0.00
  YS02001583YS02001586    1.00   0.27  0.35  0.00  0.38  0.00  0.00  0.00  0.67  0.00
  YS02001586YS02001590    1.00   0.09  0.00  0.00  0.63  0.03  0.00  0.25  0.38  0.00
  YS02001590YS02001593    1.00   0.09  0.00  0.00  0.13  0.00  0.78  0.00  0.00  0.00
  YS02001593YS02001596    1.00   0.09  0.00  0.00  0.15  0.01  0.00  0.74  0.02  0.00
  YS02001596YS02001600    1.00   0.09  0.00  0.00  0.26  0.03  0.00  0.62  0.05  0.00
  YS02001600YS02001601    1.00   0.09  0.00  0.00  0.91  0.00  0.00  0.00  0.63  0.00
  YS02001601YS02001602    1.00   0.09  0.00  0.00  0.91  0.00  0.00  0.00  0.00  0.00
  YS02001602YS02001605    1.00   0.09  0.00  0.00  0.91  0.00  0.00  0.00  0.00  0.00
  YS02001605YS02001607    1.00   0.09  0.00  0.00  0.91  0.00  0.00  0.00  0.00  0.00
  YS02001607YS02001610    1.00   0.09  0.00  0.00  0.91  0.00  0.00  0.00  0.02  0.00
  YS02001610YS02001613    1.00   0.09  0.00  0.00  0.91  0.00  0.00  0.00  0.01  0.00
  YS02001613YS02001616    1.00   0.09  0.00  0.00  0.91  0.00  0.00  0.00  0.01  0.00
  YS02001616YS02001619    1.00   0.09  0.00  0.00  0.91  0.00  0.00  0.00  0.00  0.00
  YS02001619YS02001622    1.00   0.09  0.00  0.00  0.91  0.00  0.00  0.00  0.29  0.00
  YS02001622YS02001625    1.00   0.09  0.00  0.00  0.91  0.00  0.00  0.00  0.06  0.00
  YS02001625YS02001629    1.00   0.09  0.03  0.00  0.19  0.00  0.70  0.00  0.00  0.00
  YS02001629YS02163301    1.00   0.10  0.01  0.00  0.89  0.00  0.00  0.00  0.00  0.00
  YS02001633YS02163601    1.00   0.00  0.01  0.00  0.99  0.00  0.00  0.00  0.15  0.00
  YS02001641YS02001644    1.00   0.00  0.00  0.00  1.00  0.00  0.00  0.00  0.00  0.00
  YS02001644YS02001647    1.00   0.00  0.11  0.00  0.89  0.00  0.00  0.00  0.00  0.00
  YS02001647YS02001649    1.00   0.00  0.11  0.00  0.44  0.45  0.00  0.00  0.58  0.00
  YS02001649YS02001757    1.00   0.00  0.00  0.00  0.52  0.48  0.00  0.00  0.52  0.00
  YS02001652YS02001649    1.00   0.00  0.00  0.00  0.97  0.03  0.00  0.00  0.78  0.00
  YS02001655YS02001652    1.00   0.00  0.00  0.00  0.21  0.02  0.00  0.76  0.07  0.00
  YS02001658YS02001655    1.00   0.00  0.09  0.00  0.48  0.43  0.00  0.00  0.74  0.00
  YS02001661YS02001658    1.00   0.09  0.00  0.00  0.30  0.60  0.00  0.00  0.72  0.00
  YS02001664YS02001661    1.00   0.09  0.00  0.00  0.72  0.20  0.00  0.00  0.86  0.00
  YS02001745YS02001748    1.00   0.00  0.00  0.00  0.05  0.01  0.00  0.94  0.04  0.00
  YS02001748YS02001751    1.00   0.00  0.00  0.00  0.63  0.37  0.00  0.00  0.80  0.00
  YS02001751YS02001754    1.00   0.00  0.00  0.00  0.14  0.01  0.00  0.85  0.03  0.00
  YS02001754YS02001757    1.00   0.00  0.00  0.00  1.00  0.00  0.00  0.00  0.89  0.00
  YS02001757CaochengTiaoxuchi    1.00   0.00  0.00  0.00  0.91  0.09  0.00  0.00  0.86  0.00
  YS02001759YS02001757    1.00   0.00  0.00  0.00  1.00  0.00  0.00  0.00  0.62  0.00
  YS02001762YS02001759    1.00   0.00  0.00  0.00  1.00  0.00  0.00  0.00  0.05  0.00
  YS02001765YS02001762    1.00   0.00  0.00  0.00  1.00  0.00  0.00  0.00  0.76  0.00
  YS02001767YS02001765    1.00   0.00  0.00  0.00  1.00  0.00  0.00  0.00  0.00  0.00
  YS02001770YS02001767    1.00   0.00  0.00  0.00  1.00  0.00  0.00  0.00  0.00  0.00
  YS02001774YS02001770    1.00   0.00  0.09  0.00  0.81  0.00  0.10  0.00  0.04  0.00
  YS02001779YS02001774    1.00   0.00  0.00  0.00  1.00  0.00  0.00  0.00  0.82  0.00
  YS02001783YS02001784    1.00   0.00  0.12  0.00  0.88  0.00  0.00  0.00  0.56  0.00
  YS02001784YS02001785    1.00   0.00  0.00  0.00  1.00  0.00  0.00  0.00  0.18  0.00
  YS02001786YS02001788    1.00   0.00  0.00  0.00  0.60  0.40  0.00  0.00  0.00  0.00
  YS02001788YS02001790    1.00   0.00  0.00  0.00  0.16  0.84  0.00  0.00  0.82  0.00
  YS02001790YS02001791    1.00   0.00  0.00  0.00  0.01  0.99  0.00  0.00  0.16  0.00
  YS02001791YS02001793    1.00   0.00  0.00  0.00  0.00  1.00  0.00  0.00  0.01  0.00
  YS02001793JiankangQianchi    1.00   0.00  0.00  0.00  0.98  0.02  0.00  0.00  0.98  0.00
  YS02001882YS02001884    1.00   0.10  0.01  0.00  0.90  0.00  0.00  0.00  0.00  0.00
  YS02001884YS02001887    1.00   0.06  0.03  0.00  0.92  0.00  0.00  0.00  0.00  0.00
  YS02001887YS02001890    1.00   0.00  0.00  0.00  0.96  0.00  0.03  0.00  0.00  0.00
  YS02001890YS02001895    1.00   0.00  0.10  0.00  0.89  0.00  0.00  0.00  0.00  0.00
  YS02001895YS02001898    1.00   0.11  0.00  0.00  0.87  0.00  0.02  0.00  0.00  0.00
  YS02001898YS02001901    1.00   0.11  0.00  0.00  0.89  0.00  0.00  0.00  0.01  0.00
  YS02001901YS02001904    1.00   0.11  0.00  0.00  0.89  0.00  0.00  0.00  0.00  0.00
  YS02001904YS02001907    1.00   0.00  0.10  0.00  0.89  0.00  0.00  0.00  0.00  0.00
  YS02001907YS02006553    1.00   0.00  0.02  0.00  0.97  0.00  0.00  0.00  0.00  0.00
  YS02001910YS02001907    1.00   0.00  0.00  0.00  0.97  0.00  0.00  0.03  0.12  0.00
  YS02001915YS02001910    1.00   0.00  0.00  0.00  0.97  0.03  0.00  0.00  0.17  0.00
  YS02001918YS02001915    1.00   0.00  0.00  0.00  0.97  0.02  0.00  0.00  0.78  0.00
  YS02001920YS02001918    1.00   0.00  0.00  0.00  1.00  0.00  0.00  0.00  0.00  0.00
  YS02001923YS02001920    1.00   0.00  0.00  0.00  1.00  0.00  0.00  0.00  0.94  0.00
  YS02001926YS02001923    1.00   0.00  0.06  0.00  0.06  0.00  0.88  0.00  0.00  0.00
  YS02001929YS02001926    1.00   0.00  0.09  0.00  0.91  0.00  0.00  0.00  0.84  0.00
  YS02006553YS02006556    1.00   0.01  0.00  0.00  0.99  0.00  0.00  0.00  0.03  0.00
  YS02006556YS02006558    1.00   0.00  0.00  0.00  1.00  0.00  0.00  0.00  0.00  0.00
  YS02006558YS02006561    1.00   0.12  0.00  0.00  0.05  0.83  0.00  0.00  0.19  0.00
  YS02006561YS02001783    1.00   0.12  0.00  0.00  0.09  0.79  0.00  0.00  0.70  0.00
  YS02163301YS02001633    1.00   0.00  0.10  0.00  0.90  0.00  0.00  0.00  0.00  0.00
  YS02163601YS02164001    1.00   0.00  0.07  0.00  0.93  0.00  0.00  0.00  0.00  0.00
  YS02164001YS02001641    1.00   0.01  0.06  0.00  0.93  0.00  0.00  0.00  0.06  0.00
  YSB1154YSB6556          1.00   0.09  0.00  0.00  0.91  0.00  0.00  0.00  0.02  0.00
  YSB1171HS02004479       1.00   0.04  0.00  0.00  0.95  0.00  0.00  0.01  0.10  0.00
  YSB1174YSB1171          1.00   0.05  0.02  0.00  0.93  0.00  0.00  0.00  0.00  0.00
  YSB6556YSB1171          1.00   0.04  0.04  0.00  0.91  0.00  0.00  0.00  0.00  0.00
  
  
  *************************
  Conduit Surcharge Summary
  *************************
  
  ----------------------------------------------------------------------------
                                                           Hours        Hours 
                         --------- Hours Full --------   Above Full   Capacity
  Conduit                Both Ends  Upstream  Dnstream   Normal Flow   Limited
  ----------------------------------------------------------------------------
  HS02004478WS02006287        0.30      0.30      0.45      0.01         0.01
  HS02004479HS02004480        0.46      0.46      0.48      0.01         0.01
  HS02004480HS02004478        0.40      0.45      0.40      1.47         0.40
  HS02004770HS02004777        0.37      0.37      0.37      0.09         0.06
  HS02004777HS02004785        0.32      0.32      0.37      0.01         0.01
  HS02004785HS02004788        0.31      0.32      0.31      1.17         0.31
  HS02004788HS02004792        0.31      0.31      0.42      0.01         0.01
  HS02004792HS02004799        0.42      0.42      0.53      0.01         0.01
  HS02004799HS02004480        0.45      0.45      0.53      0.61         0.01
  HS02004802HS02004478        0.41      0.41      0.47      0.01         0.01
  HS02004807HS02004802        0.44      0.44      0.46      0.08         0.09
  HS02004817HS02004807        0.44      0.44      0.97      0.01         0.01
  HS02004817HS02004824        0.32      0.32      0.97      0.01         0.01
  HS02004824HS02004830        0.30      0.30      0.32      0.01         0.01
  HS02004830HS02004837        0.26      0.26      0.30      0.01         0.01
  HS02004837HS02004842        0.26      0.26      0.38      0.01         0.01
  HS02004842HS02004848        0.23      0.23      0.38      0.01         0.01
  HS02004848HS02004852        0.23      0.23      0.25      0.03         0.01
  HS02004852HS02004856        0.25      0.25      0.27      0.02         0.01
  HS02004856HS02004862        0.23      0.23      0.26      0.02         0.01
  HS02004862HS02004870        0.26      0.26      0.28      0.03         0.01
  HS02004870HS02004876        0.28      0.28      0.35      0.01         0.01
  HS02004876HS02004881        0.33      0.35      0.33      1.21         0.33
  HS02004881HS02006253        0.33      0.33      1.48      0.01         0.01
  HS02004901HS02004770        0.37      0.37      0.37      0.01         0.01
  WS02003072WS02003073        0.01      0.01      0.01      2.29         0.01
  WS02004401WS02004402        1.34      1.34      1.37      1.11         1.10
  WS02004402WS02004403        1.37      1.37      1.38      1.33         1.33
  WS02004403WS02004404        1.38      1.38      1.58      0.01         0.01
  WS02004404WS02004405        1.53      1.58      1.53      2.82         1.53
  WS02004405WS02004406        1.49      1.53      1.49      1.72         1.49
  WS02004406WS02004407        0.01      0.01      1.49      0.01         0.01
  WS02004407WS02004409        0.01      0.01      0.75      0.01         0.01
  WS02004409WS02004410        0.70      0.75      0.70      1.19         0.70
  WS02004410WS02004411        0.63      0.70      0.63      1.28         0.63
  WS02004411WS02004412        0.55      0.63      0.55      1.32         0.55
  WS02004412WS02004413        0.55      0.55      1.00      0.01         0.01
  WS02004413WS02003067        0.01      0.01      1.00      0.01         0.01
  WS02006109WS02006110        1.66      1.66      2.15      1.68         0.01
  WS02006110WS02006113        0.96      0.96      2.14      0.26         0.01
  WS02006111WS02006112        0.95      0.95      2.24      0.01         0.01
  WS02006112WS02006115        1.21      1.21      1.79      0.01         0.01
  WS02006113WS02006111        0.96      0.96      0.96      1.07         0.96
  WS02006115WS02006116        1.23      1.23      1.24      1.19         1.19
  WS02006116WS02004401        1.33      1.33      1.34      1.30         1.29
  WS02006228WS02006109        2.11      2.15      2.11      2.42         2.11
  WS02006229WS02006228        2.10      2.12      2.10      2.27         2.10
  WS02006230WS02006229        2.18      2.23      2.18      3.04         1.26
  WS02006231WS02006230        1.58      1.58      1.63      2.52         0.81
  WS02006232WS02006231        1.62      1.62      1.87      0.05         0.10
  WS02006234WS02006232        1.72      1.72      1.87      0.03         0.05
  WS02006235WS02006234        1.68      1.69      1.73      2.32         0.77
  WS02006238WS02006235        1.75      1.75      1.82      0.01         0.23
  WS02006239WS02006238        1.77      1.79      1.78      1.19         0.43
  WS02006240WS02006239        1.68      1.71      1.70      1.15         0.38
  WS02006242WS02006240        1.69      1.69      1.86      1.56         0.61
  WS02006243WS02006242        1.66      1.66      1.78      0.01         0.02
  WS02006245WS02006243        1.63      1.63      1.65      0.50         0.32
  WS02006247WS02006245        1.61      1.63      1.62      1.92         0.64
  WS02006248WS02006247        1.59      1.59      1.62      0.01         0.03
  WS02006249WS02006248        1.58      1.58      1.59      1.14         0.01
  WS02006251WS02006249        1.58      1.58      1.59      1.69         1.48
  WS02006252WS02006251        1.78      1.78      1.82      1.49         0.01
  WS02006253WS02006251        1.58      1.58      1.60      0.57         0.02
  WS02006256WS02006235        2.55      2.59      7.09      0.53         0.01
  WS02006280WS02006229        0.56      0.56      0.67      0.01         0.01
  WS02006284WS02006280        0.48      0.48      0.55      0.01         0.01
  WS02006287WS02006284        0.40      0.40      0.49      0.13         0.12
  YS02001580YS02001583        0.36      0.36      0.41      0.01         0.01
  YS02001583YS02001586        0.37      0.37      0.49      0.01         0.01
  YS02001586YS02001590        0.49      0.49      0.55      0.01         0.01
  YS02001590YS02001593        0.56      0.56      0.57      0.58         0.01
  YS02001593YS02001596        0.56      0.56      0.66      0.01         0.01
  YS02001596YS02001600        0.70      0.70      0.80      0.01         0.01
  YS02001600YS02001601        0.86      0.86      1.17      0.01         0.01
  YS02001601YS02001602        1.05      1.05      1.21      0.82         0.01
  YS02001602YS02001605        0.99      0.99      1.05      2.06         0.01
  YS02001605YS02001607        0.94      0.99      0.94      1.13         0.94
  YS02001607YS02001610        0.50      0.50      0.53      0.01         0.01
  YS02001610YS02001613        0.50      0.50      0.53      0.01         0.01
  YS02001613YS02001616        0.46      0.46      0.50      0.01         0.01
  YS02001616YS02001619        0.45      0.45      0.46      0.01         0.01
  YS02001619YS02001622        0.44      0.45      0.44      0.59         0.43
  YS02001622YS02001625        0.44      0.44      0.61      0.01         0.01
  YS02001625YS02001629        0.39      0.39      0.61      0.01         0.01
  YS02001629YS02163301        0.59      0.59      0.60      0.27         0.24
  YS02001633YS02163601        0.62      0.62      0.65      0.42         0.42
  YS02001641YS02001644        0.48      0.53      0.48      1.25         0.48
  YS02001644YS02001647        0.29      0.29      0.48      0.04         0.01
  YS02001647YS02001649        0.29      0.29      0.36      0.01         0.01
  YS02001649YS02001757        0.35      0.36      0.38      0.31         0.25
  YS02001652YS02001649        0.24      0.24      0.36      0.01         0.01
  YS02001655YS02001652        0.10      0.10      0.22      0.01         0.01
  YS02001658YS02001655        0.01      0.01      0.10      0.01         0.01
  YS02001661YS02001658        0.01      0.01      0.01      0.01         0.01
  YS02001748YS02001751        0.01      0.01      0.03      0.01         0.01
  YS02001751YS02001754        0.03      0.03      0.11      0.01         0.01
  YS02001754YS02001757        0.15      0.15      0.38      0.01         0.01
  YS02001757CaochengTiaoxuchi        0.26      0.38      0.98      0.28         0.12
  YS02001759YS02001757        0.31      0.31      0.38      0.01         0.01
  YS02001762YS02001759        0.29      0.29      0.31      0.01         0.01
  YS02001765YS02001762        0.26      0.26      0.29      0.01         0.01
  YS02001767YS02001765        0.24      0.24      0.26      0.01         0.01
  YS02001770YS02001767        0.24      0.24      0.24      0.39         0.21
  YS02001774YS02001770        0.22      0.22      0.28      0.01         0.01
  YS02001779YS02001774        0.14      0.14      0.28      0.01         0.01
  YS02001783YS02001784        0.35      0.37      0.35      0.51         0.35
  YS02001784YS02001785        0.25      0.35      0.25      0.71         0.25
  YS02001786YS02001788        0.01      0.25      0.01      0.60         0.01
  YS02001790YS02001791        0.01      0.01      0.01      0.33         0.01
  YS02001793JiankangQianchi        0.01      0.01      6.69      0.01         0.01
  YS02001882YS02001884        0.32      0.32      0.33      0.01         0.01
  YS02001884YS02001887        0.35      0.35      0.36      0.01         0.01
  YS02001887YS02001890        0.37      0.37      0.38      0.01         0.01
  YS02001890YS02001895        0.31      0.31      0.40      0.01         0.01
  YS02001895YS02001898        0.30      0.30      0.31      0.01         0.01
  YS02001898YS02001901        0.31      0.31      0.35      0.01         0.01
  YS02001901YS02001904        0.34      0.34      0.35      0.01         0.01
  YS02001904YS02001907        0.34      0.34      0.58      0.01         0.01
  YS02001907YS02006553        0.72      0.72      0.78      0.01         0.01
  YS02001910YS02001907        0.39      0.39      0.57      0.01         0.01
  YS02001915YS02001910        0.32      0.32      0.39      0.01         0.01
  YS02001918YS02001915        0.24      0.24      0.32      0.01         0.01
  YS02001920YS02001918        0.24      0.24      0.25      0.01         0.01
  YS02001923YS02001920        0.20      0.20      0.25      0.01         0.01
  YS02001926YS02001923        0.01      0.01      0.01      0.01         0.01
  YS02001929YS02001926        0.01      0.01      0.01      0.01         0.01
  YS02006553YS02006556        0.48      0.48      0.58      0.01         0.01
  YS02006556YS02006558        0.53      0.53      0.59      0.01         0.01
  YS02006558YS02006561        0.27      0.47      0.27      0.67         0.27
  YS02006561YS02001783        0.21      0.21      0.37      0.01         0.01
  YS02163301YS02001633        0.60      0.60      0.64      0.01         0.01
  YS02163601YS02164001        0.54      0.54      0.65      0.17         0.01
  YS02164001YS02001641        0.53      0.54      0.53      0.69         0.51
  YSB1154YSB6556              0.51      0.51      0.63      0.01         0.01
  YSB1171HS02004479           0.42      0.42      0.64      0.01         0.01
  YSB1174YSB1171              0.57      0.57      0.86      0.01         0.01
  YSB6556YSB1171              0.51      0.51      1.03      0.01         0.01
  
  
  ***************
  Pumping Summary
  ***************
  
  ---------------------------------------------------------------------------------------------------------
                                                  Min       Avg       Max     Total     Power    % Time Off
                        Percent   Number of      Flow      Flow      Flow    Volume     Usage    Pump Curve
  Pump                 Utilized   Start-Ups       LPS       LPS       LPS  10^6 ltr     Kw-hr    Low   High
  ---------------------------------------------------------------------------------------------------------
  CC-R1                   18.34          30      0.00    683.00    683.00     3.607     63.04    0.0   53.4
  CC-R2                   15.90          26      0.00    683.00    683.00     3.127     54.76    0.0   50.8
  CC-S1                   24.01          23      0.00    200.00    200.00     1.383      9.76    0.0    0.0
  CC-S2                   21.16          26      0.00    200.00    200.00     1.219      8.71    0.0    0.0
  JK-R1                    7.32          17      0.00   1000.00   1000.00     2.107     20.45    0.0    0.0
  JK-R2                    1.75          10      0.00   1000.00   1000.00     0.505      4.11    0.0    0.0
  JK-S                     8.69          39      0.00    300.00    300.00     0.751     12.39    0.0    0.0
  XR-1                    97.91           2      0.00     95.00     95.00     2.679      9.63    0.0    0.0
  XR-2                    93.94           2      0.00     95.00     95.00     2.570      8.79    0.0    0.0
  XR-3                     0.00           1      0.00     95.00     95.00     0.000      0.00    0.0    0.0
  XR-4                     0.00           1      0.00     95.00     95.00     0.000      0.00    0.0    0.0
  

  Analysis begun on:  Fri Feb 24 05:44:14 2023
  Analysis ended on:  Fri Feb 24 05:44:16 2023
  Total elapsed time: 00:00:02