
  OWA STORM WATER MANAGEMENT MODEL - VERSION v5.1.14 (OWA 2023-01-25)
  --------------------------------------------------------------

  WARNING 04: minimum elevation drop used for Conduit WS02004404WS02004405
  WARNING 03: negative offset ignored for Link YS02001904YS02001907
  
  *********************************************************
  NOTE: The summary statistics displayed in this report are
  based on results found at every computational time step,  
  not just on results from each reporting time step.
  *********************************************************
  
  ****************
  Analysis Options
  ****************
  Flow Units ............... LPS
  Process Models:
    Rainfall/Runoff ........ YES
    RDII ................... NO
    Snowmelt ............... NO
    Groundwater ............ NO
    Flow Routing ........... YES
    Ponding Allowed ........ NO
    Water Quality .......... NO
  Infiltration Method ...... HORTON
  Flow Routing Method ...... DYNWAVE
  Surcharge Method ......... EXTRAN
  Starting Date ............ 08/28/2015 08:00:00
  Ending Date .............. 08/28/2015 16:00:00
  Antecedent Dry Days ...... 8.0
  Report Time Step ......... 00:01:00
  Wet Time Step ............ 00:01:00
  Dry Time Step ............ 00:01:00
  Routing Time Step ........ 30.00 sec
  Variable Time Step ....... YES
  Maximum Trials ........... 8
  Number of Threads ........ 1
  Head Tolerance ........... 0.001500 m
  
  
  **************************        Volume         Depth
  Runoff Quantity Continuity     hectare-m            mm
  **************************     ---------       -------
  Total Precipitation ......         3.013        49.740
  Evaporation Loss .........         0.000         0.000
  Infiltration Loss ........         0.230         3.805
  Surface Runoff ...........         2.722        44.941
  Final Storage ............         0.061         1.005
  Continuity Error (%) .....        -0.023
  
  
  **************************        Volume        Volume
  Flow Routing Continuity        hectare-m      10^6 ltr
  **************************     ---------     ---------
  Dry Weather Inflow .......         0.630         6.296
  Wet Weather Inflow .......         2.722        27.224
  Groundwater Inflow .......         0.000         0.000
  RDII Inflow ..............         0.000         0.000
  External Inflow ..........         0.105         1.045
  External Outflow .........         2.410        24.105
  Flooding Loss ............         1.041        10.411
  Evaporation Loss .........         0.000         0.000
  Exfiltration Loss ........         0.000         0.000
  Initial Stored Volume ....         0.303         3.031
  Final Stored Volume ......         0.321         3.213
  Continuity Error (%) .....        -0.355
  
  
  *************************
  Highest Continuity Errors
  *************************
  Node YS02001583 (-13.93%)
  Node YS02001884 (4.69%)
  Node WS02006256 (-2.84%)
  Node HS02004842 (1.59%)
  Node YS02001774 (1.59%)
  
  
  ***************************
  Time-Step Critical Elements
  ***************************
  Link WS02006280WS02006229 (45.14%)
  Link WS02006252WS02006251 (18.68%)
  Link WS02006238WS02006235 (12.53%)
  Link YS02001791YS02001793 (6.46%)
  Link WS02004404WS02004405 (5.20%)
  
  
  ********************************
  Highest Flow Instability Indexes
  ********************************
  Link WS02006113WS02006111 (28)
  Link WS02006256WS02006235 (24)
  Link WS02004404WS02004405 (24)
  Link WS02006238WS02006235 (23)
  Link WS02006229WS02006228 (22)
  
  
  *************************
  Routing Time Step Summary
  *************************
  Minimum Time Step           :     0.01 sec
  Average Time Step           :     2.44 sec
  Maximum Time Step           :     6.46 sec
  Percent in Steady State     :    -0.00
  Average Iterations per Step :     3.58
  Percent Not Converging      :    15.44
  
  
  ***************************
  Subcatchment Runoff Summary
  ***************************
  
  ------------------------------------------------------------------------------------------------------------------------------
                            Total      Total      Total      Total     Imperv       Perv      Total       Total     Peak  Runoff
                           Precip      Runon       Evap      Infil     Runoff     Runoff     Runoff      Runoff   Runoff   Coeff
  Subcatchment                 mm         mm         mm         mm         mm         mm         mm    10^6 ltr      LPS
  ------------------------------------------------------------------------------------------------------------------------------
  sub0                      49.74       0.00       0.00       0.99      45.01       2.49      47.50        0.04    24.86   0.955
  sub1                      49.74       0.00       0.00       1.67      43.02       3.81      46.83        0.31   158.87   0.941
  sub10                     49.74       0.00       0.00       1.18      44.48       2.80      47.28        0.52   274.87   0.951
  sub11                     49.74       0.00       0.00       1.17      44.50       2.82      47.31        0.55   307.95   0.951
  sub12                     49.74       0.00       0.00       1.90      42.10       4.57      46.67        0.41   249.41   0.938
  sub14                     49.74       0.00       0.00       1.33      44.00       3.15      47.16        0.45   244.31   0.948
  sub15                     49.74       0.00       0.00       5.08      33.85       9.85      43.69        0.75   354.65   0.878
  sub16                     49.74       0.00       0.00       5.29      32.42      11.13      43.54        0.46   238.00   0.875
  sub17                     49.74       0.00       0.00       5.15      32.90      10.77      43.66        0.37   193.95   0.878
  sub2                      49.74       0.00       0.00       7.16      30.43      11.25      41.68        0.39   153.37   0.838
  sub22                     49.74       0.00       0.00       7.66      27.57      13.73      41.30        2.61  1149.48   0.830
  sub23                     49.74       0.00       0.00       6.28      30.47      12.13      42.61        2.03   966.95   0.857
  sub3                      49.74       0.00       0.00       7.73      30.39      10.68      41.07        0.92   328.81   0.826
  sub4                      49.74       0.00       0.00       1.83      42.86       3.64      46.50        0.97   369.64   0.935
  sub5                      49.74       0.00       0.00       1.03      44.95       2.45      47.41        0.54   277.06   0.953
  sub60                     49.74       0.00       0.00       1.78      42.57       4.19      46.76        0.61   346.69   0.940
  sub61                     49.74       0.00       0.00       2.57      40.15       5.89      46.04        0.84   475.14   0.926
  sub62                     49.74       0.00       0.00       1.18      44.47       2.80      47.27        1.30   670.88   0.950
  sub63                     49.74       0.00       0.00       4.69      34.34       9.74      44.08        1.00   512.63   0.886
  sub64                     49.74       0.00       0.00       2.38      41.07       5.09      46.16        1.11   531.49   0.928
  sub65                     49.74       0.00       0.00       2.06      42.02       4.41      46.43        1.28   591.41   0.933
  sub66                     49.74       0.00       0.00       5.69      34.24       8.74      42.98        2.00   742.20   0.864
  sub67                     49.74       0.00       0.00       1.15      44.51       2.83      47.35        0.88   535.12   0.952
  sub68                     49.74       0.00       0.00       2.13      41.59       4.84      46.43        1.28   684.64   0.933
  sub69                     49.74       0.00       0.00       1.86      42.17       5.60      47.77        1.77   801.41   0.960
  sub7                      49.74       0.00       0.00       1.31      44.02       3.17      47.19        0.16    91.71   0.949
  sub70                     49.74       0.00       0.00       6.03      32.67      10.88      43.55        1.26   424.33   0.876
  sub71                     49.74       0.00       0.00       1.21      44.43       2.77      47.20        1.23   579.52   0.949
  sub72                     49.74       0.00       0.00       1.07      44.86       2.41      47.27        0.65   275.42   0.950
  sub8                      49.74       0.00       0.00       1.32      44.01       3.16      47.17        0.30   166.56   0.948
  sub9                      49.74       0.00       0.00       1.32      44.01       3.15      47.16        0.23   124.33   0.948
  
  
  ******************
  Node Depth Summary
  ******************
  
  ---------------------------------------------------------------------------------
                                 Average  Maximum  Maximum  Time of Max    Reported
                                   Depth    Depth      HGL   Occurrence   Max Depth
  Node                 Type       Meters   Meters   Meters  days hr:min      Meters
  ---------------------------------------------------------------------------------
  HS02004478           JUNCTION     0.22     1.58    10.81     0  01:39        1.49
  HS02004479           JUNCTION     0.30     1.69    10.89     0  01:39        1.65
  HS02004480           JUNCTION     0.26     1.67    10.91     0  01:39        1.61
  HS02004770           JUNCTION     0.27     1.42    11.25     0  01:36        1.42
  HS02004777           JUNCTION     0.29     1.48    11.28     0  01:36        1.48
  HS02004785           JUNCTION     0.18     1.49    11.39     0  01:36        1.35
  HS02004788           JUNCTION     0.15     1.42    11.32     0  01:36        1.32
  HS02004792           JUNCTION     0.20     1.60    11.12     0  01:35        1.60
  HS02004799           JUNCTION     0.32     1.76    10.97     0  01:37        1.76
  HS02004802           JUNCTION     0.32     1.79    10.92     0  01:39        1.63
  HS02004807           JUNCTION     0.29     1.92    11.09     0  01:39        1.64
  HS02004817           JUNCTION     0.59     2.39    11.24     0  01:39        1.99
  HS02004824           JUNCTION     0.15     1.95    11.35     0  01:39        1.46
  HS02004830           JUNCTION     0.15     2.03    11.50     0  01:37        1.39
  HS02004837           JUNCTION     0.12     1.93    11.51     0  01:39        1.28
  HS02004842           JUNCTION     0.42     2.22    11.49     0  01:39        1.59
  HS02004848           JUNCTION     0.10     1.97    11.57     0  01:39        1.26
  HS02004852           JUNCTION     0.11     2.03    11.54     0  01:39        1.32
  HS02004856           JUNCTION     0.17     2.05    11.48     0  01:39        1.37
  HS02004862           JUNCTION     0.12     2.00    11.38     0  01:39        1.36
  HS02004870           JUNCTION     0.12     2.10    11.39     0  01:39        1.39
  HS02004876           JUNCTION     0.17     2.26    11.29     0  01:39        1.51
  HS02004881           JUNCTION     0.11     2.15    11.18     0  01:39        1.34
  HS02004901           JUNCTION     0.28     1.42    11.24     0  01:36        1.42
  WS02001211           JUNCTION     0.64     0.86     5.70     0  01:43        0.85
  WS02001212           JUNCTION     0.38     0.64     5.70     0  01:42        0.61
  WS02001213           JUNCTION     0.60     0.96     5.72     0  01:42        0.86
  WS02003059           JUNCTION     0.67     0.97     5.66     0  01:44        0.96
  WS02003060           JUNCTION     0.39     0.69     5.62     0  01:45        0.69
  WS02003066           JUNCTION     0.23     0.45     6.01     0  01:37        0.45
  WS02003067           JUNCTION     0.55     0.94     6.26     0  01:37        0.89
  WS02003069           JUNCTION     0.44     0.77     5.36     0  01:45        0.77
  WS02003072           JUNCTION     0.50     0.81     5.18     0  01:44        0.81
  WS02003073           JUNCTION     0.30     0.52     4.58     0  01:45        0.51
  WS02004138           JUNCTION     0.13     0.14     7.39     0  00:29        0.14
  WS02004139           JUNCTION     0.58     0.77     5.68     0  01:41        0.77
  WS02004401           JUNCTION     0.77     2.66     8.66     0  02:23        2.66
  WS02004402           JUNCTION     0.79     2.20     8.16     0  02:23        2.20
  WS02004403           JUNCTION     0.80     2.03     7.96     0  01:34        1.64
  WS02004404           JUNCTION     0.86     2.13     7.98     0  01:34        1.67
  WS02004405           JUNCTION     0.85     2.24     8.09     0  01:34        1.62
  WS02004406           JUNCTION     0.84     3.45     9.28     0  01:34        1.52
  WS02004407           JUNCTION     0.26     0.89     7.20     0  01:39        0.88
  WS02004409           JUNCTION     0.54     1.36     7.13     0  01:39        1.34
  WS02004410           JUNCTION     0.55     1.28     7.00     0  01:39        1.26
  WS02004411           JUNCTION     0.55     1.28     6.96     0  01:37        1.17
  WS02004412           JUNCTION     0.55     1.28     6.92     0  01:37        1.09
  WS02004413           JUNCTION     0.69     1.54     7.01     0  01:36        1.13
  WS02006109           JUNCTION     0.98     2.64     9.26     0  01:35        2.64
  WS02006110           JUNCTION     0.92     2.76     9.34     0  01:35        2.35
  WS02006111           JUNCTION     0.43     2.68     9.38     0  01:35        1.65
  WS02006112           JUNCTION     0.99     2.68     8.56     0  01:35        2.68
  WS02006113           JUNCTION     0.50     2.72     9.62     0  01:35        1.75
  WS02006115           JUNCTION     0.70     3.18     9.32     0  02:23        3.18
  WS02006116           JUNCTION     0.77     3.21     9.25     0  02:23        3.21
  WS02006228           JUNCTION     1.04     3.03     9.68     0  01:35        3.00
  WS02006229           JUNCTION     1.05     3.25     9.94     0  01:35        3.18
  WS02006230           JUNCTION     0.98     2.65     9.39     0  01:35        2.65
  WS02006231           JUNCTION     0.71     2.20     9.33     0  01:35        2.19
  WS02006232           JUNCTION     0.80     2.18     9.22     0  01:35        2.18
  WS02006234           JUNCTION     0.69     1.96     9.12     0  01:33        1.96
  WS02006235           JUNCTION     0.70     2.00     9.16     0  01:33        2.00
  WS02006238           JUNCTION     0.72     2.12     9.26     0  02:23        2.12
  WS02006239           JUNCTION     0.66     2.03     9.24     0  01:33        2.03
  WS02006240           JUNCTION     0.60     2.10     9.39     0  01:33        2.10
  WS02006242           JUNCTION     0.64     1.55     8.82     0  01:33        1.55
  WS02006243           JUNCTION     0.53     1.48     8.90     0  01:33        1.39
  WS02006245           JUNCTION     0.51     1.45     8.94     0  01:34        1.30
  WS02006247           JUNCTION     0.52     1.47     8.97     0  01:34        1.27
  WS02006248           JUNCTION     0.47     1.10     8.69     0  01:34        1.10
  WS02006249           JUNCTION     0.49     1.09     8.69     0  01:34        1.09
  WS02006251           JUNCTION     0.59     2.21     9.88     0  01:35        2.21
  WS02006252           JUNCTION     0.40     1.50     9.74     0  00:00        1.50
  WS02006253           JUNCTION     0.65     3.50    11.14     0  01:34        2.67
  WS02006256           JUNCTION     1.07     2.35     9.28     0  00:00        2.35
  WS02006280           JUNCTION     0.29     1.83    10.10     0  01:35        1.70
  WS02006284           JUNCTION     0.55     2.08    10.48     0  01:35        1.89
  WS02006287           JUNCTION     0.29     1.73    10.69     0  01:39        1.65
  WSF200               JUNCTION     0.23     0.54     5.77     0  01:37        0.52
  YS02001580           JUNCTION     0.08     1.05     9.59     0  01:36        1.05
  YS02001583           JUNCTION     0.11     1.14     9.64     0  01:37        0.82
  YS02001586           JUNCTION     0.19     1.13     9.30     0  01:36        1.13
  YS02001590           JUNCTION     0.29     1.40     9.26     0  01:36        1.37
  YS02001593           JUNCTION     0.22     1.46     9.32     0  01:35        1.28
  YS02001596           JUNCTION     0.30     1.80     9.22     0  01:35        1.65
  YS02001600           JUNCTION     0.37     1.87     9.00     0  01:35        1.86
  YS02001601           JUNCTION     0.57     2.06     8.90     0  01:35        2.06
  YS02001602           JUNCTION     0.48     1.87     8.77     0  01:37        1.87
  YS02001605           JUNCTION     0.44     1.78     8.68     0  01:37        1.77
  YS02001607           JUNCTION     0.43     1.68     8.53     0  01:37        1.64
  YS02001610           JUNCTION     0.48     1.68     8.48     0  01:37        1.68
  YS02001613           JUNCTION     0.43     1.70     8.54     0  01:37        1.64
  YS02001616           JUNCTION     0.36     1.61     8.52     0  01:37        1.58
  YS02001619           JUNCTION     0.34     1.61     8.54     0  01:37        1.57
  YS02001622           JUNCTION     0.33     1.59     8.49     0  01:37        1.55
  YS02001625           JUNCTION     0.59     1.78     8.38     0  01:37        1.78
  YS02001629           JUNCTION     0.45     1.85     8.40     0  01:37        1.85
  YS02001633           JUNCTION     0.53     2.01     8.47     0  01:39        2.00
  YS02001641           JUNCTION     0.51     1.96     8.40     0  01:43        1.96
  YS02001644           JUNCTION     0.50     1.92     8.35     0  01:41        1.92
  YS02001647           JUNCTION     0.28     1.65     8.26     0  01:41        1.63
  YS02001649           JUNCTION     0.31     1.79     8.18     0  01:41        1.72
  YS02001652           JUNCTION     0.20     1.73     8.33     0  01:39        1.52
  YS02001655           JUNCTION     0.14     1.73     8.58     0  01:39        1.29
  YS02001658           JUNCTION     0.10     1.36     8.50     0  01:41        1.03
  YS02001661           JUNCTION     0.13     0.79     8.20     0  01:41        0.78
  YS02001664           JUNCTION     0.05     0.27     8.20     0  01:40        0.27
  YS02001745           JUNCTION     0.05     0.48     8.00     0  01:42        0.47
  YS02001748           JUNCTION     0.08     0.93     8.01     0  01:41        0.88
  YS02001751           JUNCTION     0.11     1.60     8.48     0  01:40        1.07
  YS02001754           JUNCTION     0.16     1.64     8.25     0  01:40        1.32
  YS02001757           JUNCTION     0.32     1.72     7.98     0  01:41        1.67
  YS02001759           JUNCTION     0.26     1.70     8.06     0  01:40        1.66
  YS02001762           JUNCTION     0.25     1.69     8.09     0  01:40        1.68
  YS02001765           JUNCTION     0.23     1.67     8.12     0  01:43        1.67
  YS02001767           JUNCTION     0.23     1.77     8.26     0  01:39        1.68
  YS02001770           JUNCTION     0.25     1.95     8.45     0  01:39        1.73
  YS02001774           JUNCTION     0.31     1.90     8.32     0  01:39        1.81
  YS02001779           JUNCTION     0.14     1.68     8.37     0  01:39        1.55
  YS02001783           JUNCTION     0.24     1.31     7.45     0  01:38        1.21
  YS02001784           JUNCTION     0.26     1.18     7.25     0  01:38        1.10
  YS02001786           JUNCTION     0.22     0.92     6.95     0  01:38        0.86
  YS02001788           JUNCTION     0.16     0.62     6.60     0  01:39        0.62
  YS02001790           JUNCTION     0.19     0.72     6.37     0  01:42        0.72
  YS02001791           JUNCTION     0.12     0.44     5.91     0  01:43        0.43
  YS02001793           JUNCTION     0.06     0.29     5.13     0  01:50        0.29
  YS02001882           JUNCTION     0.30     1.83     8.55     0  01:37        1.63
  YS02001884           JUNCTION     0.39     1.93     8.55     0  01:37        1.72
  YS02001887           JUNCTION     0.47     1.88     8.41     0  01:37        1.79
  YS02001890           JUNCTION     0.50     1.81     8.32     0  01:37        1.81
  YS02001895           JUNCTION     0.27     1.64     8.39     0  01:38        1.56
  YS02001898           JUNCTION     0.28     1.73     8.47     0  01:37        1.55
  YS02001901           JUNCTION     0.39     1.77     8.38     0  01:38        1.67
  YS02001904           JUNCTION     0.37     1.69     8.32     0  01:38        1.64
  YS02001907           JUNCTION     0.69     1.96     8.25     0  01:38        1.96
  YS02001910           JUNCTION     0.49     2.00     8.51     0  01:39        1.83
  YS02001915           JUNCTION     0.30     1.95     8.66     0  01:39        1.69
  YS02001918           JUNCTION     0.15     1.81     8.88     0  01:39        1.35
  YS02001920           JUNCTION     0.23     2.14     9.15     0  01:39        1.43
  YS02001923           JUNCTION     0.11     2.03     9.29     0  01:39        1.20
  YS02001926           JUNCTION     0.15     1.90     9.35     0  01:39        1.00
  YS02001929           JUNCTION     0.08     1.78     9.47     0  01:39        0.75
  YS02006553           JUNCTION     0.70     2.00     8.28     0  01:38        1.96
  YS02006556           JUNCTION     0.67     2.00     8.31     0  01:38        1.92
  YS02006558           JUNCTION     0.71     2.05     8.32     0  01:38        1.97
  YS02006561           JUNCTION     0.15     1.00     7.66     0  01:38        0.88
  YS02163301           JUNCTION     0.48     1.92     8.44     0  01:39        1.91
  YS02163601           JUNCTION     0.57     2.04     8.44     0  01:43        2.04
  YS02164001           JUNCTION     0.50     1.97     8.43     0  01:43        1.97
  YSB1154              JUNCTION     0.43     1.90    10.96     0  01:37        1.85
  YSB1171              JUNCTION     0.58     1.95    10.85     0  01:37        1.95
  YSB1174              JUNCTION     0.39     1.79    10.90     0  01:37        1.77
  YSB6556              JUNCTION     0.33     1.75    10.92     0  01:37        1.72
  CC-1                 OUTFALL      0.00     0.00     0.00     0  00:00        0.00
  CC-2                 OUTFALL      0.00     0.00     0.00     0  00:00        0.00
  JK-1                 OUTFALL      0.00     0.00     0.00     0  00:00        0.00
  JK-2                 OUTFALL      0.00     0.00     0.00     0  00:00        0.00
  WSC                  OUTFALL      0.30     0.51     1.18     0  01:46        0.51
  CC-storage           STORAGE      0.73     1.42     6.92     0  02:10        1.42
  JK-storage           STORAGE      1.35     4.23     5.03     0  01:39        4.20
  XR-storage           STORAGE      7.91     9.26     7.26     0  08:00        9.26
  
  
  *******************
  Node Inflow Summary
  *******************
  
  -------------------------------------------------------------------------------------------------
                                  Maximum  Maximum                  Lateral       Total        Flow
                                  Lateral    Total  Time of Max      Inflow      Inflow     Balance
                                   Inflow   Inflow   Occurrence      Volume      Volume       Error
  Node                 Type           LPS      LPS  days hr:min    10^6 ltr    10^6 ltr     Percent
  -------------------------------------------------------------------------------------------------
  HS02004478           JUNCTION      0.00  2237.34     0  01:41           0        7.85      -0.013
  HS02004479           JUNCTION      0.00   518.64     0  01:38           0       0.858       0.103
  HS02004480           JUNCTION      0.00  2207.25     0  01:37           0        6.12       0.041
  HS02004770           JUNCTION    966.95   966.95     0  01:40        2.03        2.28       0.139
  HS02004777           JUNCTION      0.03   920.16     0  01:36    0.000864        1.84       0.268
  HS02004785           JUNCTION      0.15   920.85     0  01:36     0.00432        1.84       0.013
  HS02004788           JUNCTION    356.32   842.18     0  01:36         0.8        2.63      -0.013
  HS02004792           JUNCTION   1149.76  1860.19     0  01:40        2.62        5.24       0.006
  HS02004799           JUNCTION    244.31  1734.77     0  01:37       0.449        5.28       0.050
  HS02004802           JUNCTION      0.00   665.27     0  01:41           0        1.76       0.232
  HS02004807           JUNCTION    307.95   665.17     0  01:41        0.55        1.81       0.231
  HS02004817           JUNCTION      0.60   543.90     0  01:37      0.0173        1.32       1.267
  HS02004824           JUNCTION    369.69   793.52     0  01:37       0.971        1.53       0.025
  HS02004830           JUNCTION      0.15   795.38     0  01:37     0.00432       0.787       0.157
  HS02004837           JUNCTION    281.22  1064.36     0  01:37       0.704        1.15       0.093
  HS02004842           JUNCTION      0.00  1009.83     0  01:37           0       0.807       1.616
  HS02004848           JUNCTION    328.81  1248.51     0  01:37       0.925        1.56       0.012
  HS02004852           JUNCTION      0.00  1188.76     0  01:38           0        1.41       0.016
  HS02004856           JUNCTION    124.33  1245.62     0  01:38       0.227        1.64       0.088
  HS02004862           JUNCTION    153.57  1341.00     0  01:38       0.394        2.03       0.000
  HS02004870           JUNCTION    166.56  1521.87     0  01:38       0.301        2.33       0.011
  HS02004876           JUNCTION    158.87  1511.36     0  01:39       0.311        2.64      -0.006
  HS02004881           JUNCTION     91.71  1588.74     0  01:39       0.159         2.8       0.001
  HS02004901           JUNCTION    238.00   456.83     0  01:44       0.456       0.657       0.262
  WS02001211           JUNCTION      7.35   349.07     0  01:41       0.212        5.45       0.610
  WS02001212           JUNCTION      0.00   419.29     0  01:39           0        5.42       0.289
  WS02001213           JUNCTION      0.00   358.09     0  01:38           0        5.42       0.323
  WS02003059           JUNCTION      0.00   428.31     0  01:38           0        5.42       0.588
  WS02003060           JUNCTION     16.53  1543.29     0  01:45       0.476        13.8       0.108
  WS02003066           JUNCTION      0.00  1286.06     0  01:39           0        7.99       0.019
  WS02003067           JUNCTION      0.00  1271.48     0  01:39           0        7.99       0.057
  WS02003069           JUNCTION      0.32  1502.20     0  01:45     0.00922        13.8       0.114
  WS02003072           JUNCTION      0.00  1493.11     0  01:46           0        13.8       0.154
  WS02003073           JUNCTION      1.82  1495.00     0  01:45      0.0524        13.8       0.158
  WS02004138           JUNCTION      0.00   380.00     0  00:00           0        5.25       0.054
  WS02004139           JUNCTION      0.32   303.01     0  01:40     0.00924        5.26       0.509
  WS02004401           JUNCTION      0.00  1299.58     0  01:37           0         8.1       0.130
  WS02004402           JUNCTION      0.00  1300.10     0  01:37           0        8.09       0.133
  WS02004403           JUNCTION      0.00  1300.43     0  01:37           0        8.08       0.125
  WS02004404           JUNCTION      0.16  1301.71     0  01:37     0.00467        8.07       0.118
  WS02004405           JUNCTION      0.04  1305.74     0  01:37      0.0011        8.06       0.148
  WS02004406           JUNCTION      0.00  1309.02     0  01:37           0        8.05       0.265
  WS02004407           JUNCTION      0.00  1309.57     0  01:37           0        8.03       0.022
  WS02004409           JUNCTION      0.00  1275.30     0  01:36           0        8.03       0.044
  WS02004410           JUNCTION      0.00  1270.97     0  01:39           0        8.02       0.063
  WS02004411           JUNCTION      0.00  1271.60     0  01:39           0        8.02       0.077
  WS02004412           JUNCTION      0.00  1270.94     0  01:40           0        8.01       0.102
  WS02004413           JUNCTION      0.00  1271.24     0  01:39           0           8       0.170
  WS02006109           JUNCTION      1.23  1255.37     0  01:41      0.0354         7.9       0.114
  WS02006110           JUNCTION      0.00  1159.33     0  01:35           0        7.76       0.096
  WS02006111           JUNCTION      0.00  1128.52     0  01:37           0        7.75       0.006
  WS02006112           JUNCTION    193.95  1302.45     0  01:37       0.375        8.12       0.223
  WS02006113           JUNCTION      0.00  1159.29     0  01:35           0        7.75       0.027
  WS02006115           JUNCTION      0.00  1301.52     0  01:37           0        8.11       0.083
  WS02006116           JUNCTION      0.00  1299.82     0  01:37           0         8.1       0.036
  WS02006228           JUNCTION      0.00  1254.72     0  01:41           0        7.87       0.065
  WS02006229           JUNCTION      0.00  2236.98     0  01:41           0        9.84       0.083
  WS02006230           JUNCTION     10.28   992.44     0  01:41       0.296        4.01       0.235
  WS02006231           JUNCTION      0.00   498.82     0  03:20           0        2.98      -0.143
  WS02006232           JUNCTION      0.00   498.99     0  03:20           0        2.95       0.205
  WS02006234           JUNCTION      0.00   499.36     0  03:20           0        2.92      -0.429
  WS02006235           JUNCTION      0.00   499.94     0  03:20           0           3       0.342
  WS02006238           JUNCTION      0.00   415.91     0  01:54           0         2.6      -0.136
  WS02006239           JUNCTION      0.00   415.27     0  01:54           0        2.52      -0.233
  WS02006240           JUNCTION      0.00   416.57     0  02:11           0        2.48       0.031
  WS02006242           JUNCTION      0.00   418.74     0  01:33           0        2.47      -0.047
  WS02006243           JUNCTION      0.00   450.40     0  01:32           0        2.14      -0.203
  WS02006245           JUNCTION      0.00   476.61     0  01:31           0        2.15       0.785
  WS02006247           JUNCTION      0.00   483.78     0  01:31           0        2.15      -0.077
  WS02006248           JUNCTION      0.00   522.39     0  01:31           0        2.33      -0.285
  WS02006249           JUNCTION      0.00  1353.64     0  01:39           0        5.49       0.247
  WS02006251           JUNCTION      0.08  1511.56     0  01:39     0.00222        5.54      -0.034
  WS02006252           JUNCTION      0.00   404.26     0  01:39           0        2.84      -0.545
  WS02006253           JUNCTION     24.86  1509.96     0  01:39      0.0385        2.91       0.029
  WS02006256           JUNCTION      0.00   300.00     0  00:00           0        1.22      -2.761
  WS02006280           JUNCTION      0.00  2236.20     0  01:41           0        7.83      -0.006
  WS02006284           JUNCTION      0.10  2236.08     0  01:41     0.00275        7.83       0.025
  WS02006287           JUNCTION      0.00  2236.43     0  01:41           0        7.83       0.027
  WSF200               JUNCTION      0.00  1283.22     0  01:39           0        7.98       0.011
  YS02001580           JUNCTION      0.00   233.86     0  01:36           0     0.00451      -6.174
  YS02001583           JUNCTION      0.00   244.47     0  01:37           0      0.0145     -12.230
  YS02001586           JUNCTION    424.33   424.40     0  01:43        1.26        1.27       0.128
  YS02001590           JUNCTION      0.00   318.02     0  01:54           0        1.18      -0.034
  YS02001593           JUNCTION      0.00   318.08     0  01:54           0        1.18       0.006
  YS02001596           JUNCTION      0.00   318.13     0  01:43           0        1.18       0.003
  YS02001600           JUNCTION      0.00   318.10     0  01:50           0        1.18       0.017
  YS02001601           JUNCTION    801.41  1119.00     0  01:41        1.77        2.94       0.030
  YS02001602           JUNCTION      0.00   587.90     0  01:36           0        2.13       0.023
  YS02001605           JUNCTION      0.00   587.66     0  01:36           0        2.04       0.025
  YS02001607           JUNCTION      0.00   587.57     0  01:36           0        2.04       0.078
  YS02001610           JUNCTION      0.00   556.82     0  01:36           0        2.04       0.104
  YS02001613           JUNCTION      0.00   526.83     0  01:36           0        1.82       0.094
  YS02001616           JUNCTION      0.00   485.47     0  02:11           0        1.82       0.000
  YS02001619           JUNCTION    742.20   869.71     0  01:38           2        3.83      -0.011
  YS02001622           JUNCTION      0.00   867.90     0  01:38           0        3.82       0.001
  YS02001625           JUNCTION      0.00   868.60     0  01:38           0        3.82       0.239
  YS02001629           JUNCTION      0.00   867.43     0  01:38           0        3.52       0.013
  YS02001633           JUNCTION    591.61  1393.95     0  01:38        1.28         4.8       0.069
  YS02001641           JUNCTION      0.00  1394.60     0  01:38           0         4.8       0.057
  YS02001644           JUNCTION    531.53  1875.71     0  01:38        1.11         5.9       0.054
  YS02001647           JUNCTION      0.00  1875.82     0  01:38           0        5.89       0.007
  YS02001649           JUNCTION      0.00  2184.94     0  01:39           0         6.9       0.008
  YS02001652           JUNCTION      0.00   581.61     0  01:42           0        1.01      -0.215
  YS02001655           JUNCTION      0.15   681.96     0  01:39     0.00443        1.01       0.016
  YS02001658           JUNCTION      0.00   672.58     0  01:46           0           1      -0.060
  YS02001661           JUNCTION      0.00   518.78     0  01:40           0           1       0.031
  YS02001664           JUNCTION    512.63   512.63     0  01:40           1           1      -0.006
  YS02001745           JUNCTION    346.70   346.70     0  01:39       0.615       0.615       0.247
  YS02001748           JUNCTION      0.04   523.86     0  01:40      0.0013       0.616      -0.350
  YS02001751           JUNCTION      0.01   486.66     0  01:43    0.000317       0.622       0.111
  YS02001754           JUNCTION      0.26   416.64     0  01:41     0.00749       0.632      -0.274
  YS02001757           JUNCTION      0.00  3302.28     0  01:42           0        9.69       0.065
  YS02001759           JUNCTION    475.18  1214.54     0  01:39       0.846        2.16      -0.016
  YS02001762           JUNCTION      0.00   730.76     0  01:39           0        1.31       0.004
  YS02001765           JUNCTION      0.00   720.57     0  01:39           0        1.31       0.009
  YS02001767           JUNCTION      0.54   713.46     0  01:39      0.0154        1.31       0.001
  YS02001770           JUNCTION    671.03   695.18     0  01:39         1.3        1.34      -0.022
  YS02001774           JUNCTION      0.00   417.93     0  01:39           0      0.0631       1.613
  YS02001779           JUNCTION      0.01   422.39     0  01:39    0.000144      0.0206      -2.245
  YS02001783           JUNCTION      0.00  1151.96     0  01:40           0        3.65       0.005
  YS02001784           JUNCTION      1.06  1153.36     0  01:40      0.0305        3.68       0.013
  YS02001786           JUNCTION      0.06  1153.50     0  01:40     0.00162        3.68       0.016
  YS02001788           JUNCTION      0.07  1155.16     0  01:39     0.00204        3.68       0.008
  YS02001790           JUNCTION      0.15  1165.75     0  01:39     0.00446        3.69       0.017
  YS02001791           JUNCTION      0.00  1282.48     0  01:44           0        3.69      -0.021
  YS02001793           JUNCTION      0.00  1235.68     0  01:40           0        3.69       0.007
  YS02001882           JUNCTION      0.00    93.12     0  01:37           0      0.0122       2.864
  YS02001884           JUNCTION      0.00   149.50     0  01:37           0      0.0479       4.917
  YS02001887           JUNCTION    535.57   568.19     0  01:37       0.894       0.927       0.468
  YS02001890           JUNCTION      0.00   579.46     0  01:37           0       0.887       0.553
  YS02001895           JUNCTION      0.00   583.08     0  01:37           0        0.88       0.202
  YS02001898           JUNCTION      0.00   580.84     0  01:38           0       0.878       0.025
  YS02001901           JUNCTION      0.00   586.72     0  01:38           0       0.881       0.365
  YS02001904           JUNCTION      0.00   587.45     0  01:38           0       0.887       0.303
  YS02001907           JUNCTION      0.00  1533.27     0  01:40           0        2.85       0.629
  YS02001910           JUNCTION      0.00  1015.42     0  01:40           0        1.97       0.372
  YS02001915           JUNCTION    579.54  1014.35     0  01:40        1.23        2.02       0.065
  YS02001918           JUNCTION      0.00   648.40     0  01:38           0       0.822      -0.015
  YS02001920           JUNCTION      2.87   576.41     0  01:38      0.0827       0.795       0.109
  YS02001923           JUNCTION      0.04   726.99     0  01:38     0.00109       0.694      -0.132
  YS02001926           JUNCTION      0.05   958.83     0  01:38      0.0015       0.672      -0.176
  YS02001929           JUNCTION    275.42   776.30     0  01:39        0.65       0.656      -0.159
  YS02006553           JUNCTION      0.00   788.96     0  01:55           0         2.4       0.497
  YS02006556           JUNCTION      0.00   788.20     0  01:55           0        2.41       0.328
  YS02006558           JUNCTION    685.52  1166.29     0  01:37         1.3        3.68       0.100
  YS02006561           JUNCTION      0.00  1175.03     0  01:37           0        3.65      -0.004
  YS02163301           JUNCTION      0.00   867.13     0  01:38           0        3.52       0.038
  YS02163601           JUNCTION      0.11  1394.14     0  01:38     0.00317         4.8       0.101
  YS02164001           JUNCTION      0.00  1394.47     0  01:38           0         4.8       0.048
  YSB1154              JUNCTION    277.06   277.06     0  01:40       0.537       0.538       0.269
  YSB1171              JUNCTION      0.00   521.81     0  01:40           0       0.953       0.669
  YSB1174              JUNCTION    249.41   249.41     0  01:39       0.408       0.408       0.306
  YSB6556              JUNCTION      0.00   277.30     0  01:40           0       0.539       0.217
  CC-1                 OUTFALL       0.00   683.00     0  00:00           0         3.8       0.000
  CC-2                 OUTFALL       0.00   683.00     0  00:00           0        3.91       0.000
  JK-1                 OUTFALL       0.00  1000.00     0  00:00           0        1.16       0.000
  JK-2                 OUTFALL       0.00  1000.00     0  00:00           0        1.44       0.000
  WSC                  OUTFALL       0.00  1496.18     0  01:46           0        13.8       0.000
  CC-storage           STORAGE       0.00  3303.87     0  01:42           0        11.9      -0.262
  JK-storage           STORAGE       0.00  1234.39     0  01:55           0        3.84      -0.443
  XR-storage           STORAGE     200.00   200.00     0  00:00        5.76        6.36       0.001
  
  
  **********************
  Node Surcharge Summary
  **********************
  
  Surcharging occurs when water rises above the top of the highest conduit.
  ---------------------------------------------------------------------
                                               Max. Height   Min. Depth
                                   Hours       Above Crown    Below Rim
  Node                 Type      Surcharged         Meters       Meters
  ---------------------------------------------------------------------
  HS02004478           JUNCTION        0.40          0.658        0.282
  HS02004479           JUNCTION        0.53          0.889        0.161
  HS02004480           JUNCTION        0.56          0.957        0.143
  HS02004770           JUNCTION        0.48          0.720        0.000
  HS02004777           JUNCTION        0.49          0.780        0.000
  HS02004785           JUNCTION        0.43          0.790        0.000
  HS02004788           JUNCTION        0.42          0.720        0.000
  HS02004792           JUNCTION        0.53          0.900        0.000
  HS02004799           JUNCTION        0.64          1.060        0.000
  HS02004802           JUNCTION        0.57          1.082        0.128
  HS02004807           JUNCTION        0.55          1.220        0.000
  HS02004817           JUNCTION        1.14          1.688        0.052
  HS02004824           JUNCTION        0.42          1.246        0.064
  HS02004830           JUNCTION        0.39          1.330        0.000
  HS02004837           JUNCTION        0.34          1.232        0.108
  HS02004842           JUNCTION        0.48          1.520        0.000
  HS02004848           JUNCTION        0.32          1.268        0.102
  HS02004852           JUNCTION        0.35          1.325        0.095
  HS02004856           JUNCTION        0.33          1.284        0.016
  HS02004862           JUNCTION        0.37          1.300        0.000
  HS02004870           JUNCTION        0.39          1.400        0.000
  HS02004876           JUNCTION        0.46          1.560        0.000
  HS02004881           JUNCTION        0.44          1.450        0.000
  HS02004901           JUNCTION        0.49          0.720        0.000
  WS02004401           JUNCTION        1.59          1.660        0.000
  WS02004402           JUNCTION        1.61          1.204        0.536
  WS02004403           JUNCTION        1.62          1.033        0.997
  WS02004404           JUNCTION        1.72          1.130        1.650
  WS02004405           JUNCTION        1.69          1.238        1.562
  WS02004406           JUNCTION        1.65          2.450        0.000
  WS02004409           JUNCTION        0.85          0.359        2.001
  WS02004410           JUNCTION        0.81          0.278        2.262
  WS02004411           JUNCTION        0.75          0.280        2.250
  WS02004412           JUNCTION        0.65          0.279        2.031
  WS02004413           JUNCTION        1.28          0.544        1.656
  WS02006109           JUNCTION        1.99          1.820        0.000
  WS02006110           JUNCTION        1.84          1.850        0.000
  WS02006111           JUNCTION        1.13          1.866        0.004
  WS02006112           JUNCTION        1.92          1.680        0.000
  WS02006113           JUNCTION        1.19          1.925        0.005
  WS02006115           JUNCTION        1.53          2.169        0.081
  WS02006116           JUNCTION        1.55          2.151        0.139
  WS02006228           JUNCTION        1.99          2.200        0.000
  WS02006229           JUNCTION        0.80          1.070        0.000
  WS02006230           JUNCTION        1.72          1.570        0.000
  WS02006231           JUNCTION        1.75          1.495        0.035
  WS02006232           JUNCTION        1.91          1.480        0.000
  WS02006234           JUNCTION        1.79          1.240        0.000
  WS02006235           JUNCTION        1.85          1.290        0.000
  WS02006238           JUNCTION        1.87          1.399        0.031
  WS02006239           JUNCTION        1.81          1.290        0.000
  WS02006240           JUNCTION        1.80          1.390        0.000
  WS02006242           JUNCTION        1.87          0.820        0.000
  WS02006243           JUNCTION        1.77          0.770        0.000
  WS02006245           JUNCTION        1.75          0.741        0.109
  WS02006247           JUNCTION        1.77          0.760        0.000
  WS02006248           JUNCTION        1.73          0.380        0.000
  WS02006249           JUNCTION        1.74          0.390        0.000
  WS02006251           JUNCTION        1.62          1.180        0.000
  WS02006252           JUNCTION        1.88          1.100        0.000
  WS02006253           JUNCTION        1.62          2.457        0.023
  WS02006256           JUNCTION        6.97          2.050        0.000
  WS02006280           JUNCTION        0.66          0.780        0.000
  WS02006284           JUNCTION        0.58          0.800        0.000
  WS02006287           JUNCTION        0.49          0.733        0.157
  YS02001580           JUNCTION        0.47          0.450        0.000
  YS02001583           JUNCTION        0.47          0.500        0.000
  YS02001586           JUNCTION        0.63          0.510        0.000
  YS02001590           JUNCTION        0.71          0.750        0.000
  YS02001593           JUNCTION        0.70          0.840        0.000
  YS02001596           JUNCTION        0.80          1.070        0.000
  YS02001600           JUNCTION        0.95          1.190        0.000
  YS02001601           JUNCTION        1.39          1.440        0.000
  YS02001602           JUNCTION        1.23          1.270        0.000
  YS02001605           JUNCTION        1.16          1.180        0.000
  YS02001607           JUNCTION        0.65          0.680        0.000
  YS02001610           JUNCTION        0.68          0.680        0.000
  YS02001613           JUNCTION        0.65          0.700        0.000
  YS02001616           JUNCTION        0.61          0.610        0.000
  YS02001619           JUNCTION        0.59          0.610        0.000
  YS02001622           JUNCTION        0.59          0.588        0.032
  YS02001625           JUNCTION        0.77          0.780        0.000
  YS02001629           JUNCTION        0.53          0.470        0.000
  YS02001633           JUNCTION        0.78          0.994        0.066
  YS02001641           JUNCTION        0.71          0.965        0.135
  YS02001644           JUNCTION        0.68          0.920        0.000
  YS02001647           JUNCTION        0.46          0.649        0.251
  YS02001649           JUNCTION        0.58          0.791        0.259
  YS02001652           JUNCTION        0.34          0.700        0.430
  YS02001655           JUNCTION        0.12          0.727        0.473
  YS02001658           JUNCTION        0.02          0.355        0.945
  YS02001751           JUNCTION        0.04          0.603        0.597
  YS02001754           JUNCTION        0.12          0.595        0.555
  YS02001757           JUNCTION        0.63          0.719        0.491
  YS02001759           JUNCTION        0.52          0.701        0.509
  YS02001762           JUNCTION        0.48          0.690        0.460
  YS02001765           JUNCTION        0.43          0.673        0.427
  YS02001767           JUNCTION        0.39          0.770        0.260
  YS02001770           JUNCTION        0.35          0.920        0.000
  YS02001774           JUNCTION        0.47          0.895        0.155
  YS02001779           JUNCTION        0.17          0.680        0.000
  YS02001783           JUNCTION        0.46          0.511        1.089
  YS02001784           JUNCTION        0.43          0.383        1.107
  YS02001786           JUNCTION        0.33          0.123        1.307
  YS02001882           JUNCTION        0.40          0.830        0.000
  YS02001884           JUNCTION        0.41          0.870        0.000
  YS02001887           JUNCTION        0.45          0.827        0.123
  YS02001890           JUNCTION        0.46          0.760        0.000
  YS02001895           JUNCTION        0.39          0.639        0.111
  YS02001898           JUNCTION        0.39          0.705        0.035
  YS02001901           JUNCTION        0.44          0.767        0.103
  YS02001904           JUNCTION        0.43          0.685        0.165
  YS02001907           JUNCTION        0.64          0.950        0.000
  YS02001910           JUNCTION        0.49          1.004        0.096
  YS02001915           JUNCTION        0.40          0.946        0.054
  YS02001918           JUNCTION        0.32          0.810        0.000
  YS02001920           JUNCTION        0.33          1.140        0.000
  YS02001923           JUNCTION        0.01          0.820        0.000
  YS02001926           JUNCTION        0.01          0.900        0.000
  YS02001929           JUNCTION        0.01          0.780        0.000
  YS02006553           JUNCTION        0.65          0.995        0.195
  YS02006556           JUNCTION        0.56          0.956        0.394
  YS02006558           JUNCTION        0.55          0.949        0.451
  YS02006561           JUNCTION        0.28          0.199        0.951
  YS02163301           JUNCTION        0.76          0.923        0.107
  YS02163601           JUNCTION        0.80          1.045        0.035
  YS02164001           JUNCTION        0.72          0.969        0.131
  YSB1154              JUNCTION        0.76          1.202        0.198
  YSB1171              JUNCTION        0.77          1.100        0.000
  YSB1174              JUNCTION        0.67          1.093        0.157
  YSB6556              JUNCTION        0.61          1.054        0.046
  
  
  *********************
  Node Flooding Summary
  *********************
  
  Flooding refers to all water that overflows a node, whether it ponds or not.
  --------------------------------------------------------------------------
                                                             Total   Maximum
                                 Maximum   Time of Max       Flood    Ponded
                        Hours       Rate    Occurrence      Volume     Depth
  Node                 Flooded       LPS   days hr:min    10^6 ltr    Meters
  --------------------------------------------------------------------------
  HS02004770              0.24    545.32      0  01:38       0.244     0.000
  HS02004777              0.01     94.54      0  01:36       0.002     0.000
  HS02004785              0.01    498.33      0  01:36       0.003     0.000
  HS02004788              0.01    434.90      0  01:36       0.007     0.000
  HS02004792              0.26    711.33      0  01:40       0.409     0.000
  HS02004799              0.05    100.34      0  01:39       0.005     0.000
  HS02004807              0.01     13.85      0  01:39       0.000     0.000
  HS02004830              0.01    110.90      0  01:37       0.000     0.000
  HS02004842              0.01     44.34      0  01:39       0.000     0.000
  HS02004862              0.01     82.02      0  01:39       0.001     0.000
  HS02004870              0.01     85.49      0  01:39       0.000     0.000
  HS02004876              0.01     49.26      0  01:39       0.000     0.000
  HS02004881              0.01    553.60      0  01:39       0.002     0.000
  HS02004901              0.34    456.82      0  01:44       0.404     0.000
  WS02004401              0.01      0.36      0  02:23       0.000     0.000
  WS02004406              0.01    207.34      0  01:34       0.000     0.000
  WS02006109              0.32    187.94      0  01:40       0.132     0.000
  WS02006110              0.01     72.36      0  01:35       0.000     0.000
  WS02006112              0.01     57.88      0  01:35       0.000     0.000
  WS02006228              0.01     11.66      0  01:35       0.000     0.000
  WS02006229              0.01     29.19      0  01:35       0.000     0.000
  WS02006230              0.59    539.59      0  01:41       0.750     0.000
  WS02006232              0.14      5.63      0  01:35       0.000     0.000
  WS02006234              0.66    141.24      0  01:33       0.200     0.000
  WS02006235              0.01     74.00      0  01:33       0.000     0.000
  WS02006239              0.01    169.94      0  01:33       0.000     0.000
  WS02006240              0.01    278.71      0  01:33       0.000     0.000
  WS02006242              0.79    361.49      0  01:33       0.332     0.000
  WS02006243              0.01    236.36      0  01:33       0.001     0.000
  WS02006247              0.01    206.76      0  01:34       0.000     0.000
  WS02006248              1.18    339.09      0  02:20       1.018     0.000
  WS02006249              1.62   1353.49      0  01:39       3.995     0.000
  WS02006251              0.01    147.24      0  01:39       0.001     0.000
  WS02006252              0.38    402.59      0  01:39       0.221     0.000
  WS02006256              1.12    294.19      0  01:39       0.634     0.000
  WS02006280              0.01     13.30      0  01:35       0.000     0.000
  WS02006284              0.01    258.98      0  01:35       0.000     0.000
  YS02001580              0.01    181.81      0  01:36       0.001     0.000
  YS02001583              0.01    148.76      0  01:37       0.000     0.000
  YS02001586              0.33    153.14      0  01:37       0.081     0.000
  YS02001590              0.01     27.80      0  01:36       0.000     0.000
  YS02001593              0.01     58.16      0  01:35       0.000     0.000
  YS02001596              0.01     23.49      0  01:35       0.000     0.000
  YS02001600              0.01     18.96      0  01:35       0.000     0.000
  YS02001601              0.56    721.21      0  01:41       0.819     0.000
  YS02001602              0.41     61.96      0  01:42       0.082     0.000
  YS02001605              0.01     22.61      0  01:37       0.000     0.000
  YS02001607              0.01    118.31      0  01:37       0.000     0.000
  YS02001610              0.35    256.78      0  01:44       0.217     0.000
  YS02001613              0.01     62.52      0  01:37       0.000     0.000
  YS02001616              0.01     54.09      0  01:37       0.000     0.000
  YS02001619              0.01     80.61      0  01:37       0.000     0.000
  YS02001625              0.28    666.13      0  01:42       0.299     0.000
  YS02001629              0.02    194.36      0  01:37       0.002     0.000
  YS02001644              0.01      7.11      0  01:41       0.000     0.000
  YS02001770              0.01    119.71      0  01:39       0.000     0.000
  YS02001779              0.01    344.57      0  01:39       0.003     0.000
  YS02001882              0.01     21.62      0  01:37       0.000     0.000
  YS02001884              0.01     21.38      0  01:37       0.000     0.000
  YS02001890              0.03    117.23      0  01:37       0.002     0.000
  YS02001907              0.25   1068.99      0  01:40       0.441     0.000
  YS02001918              0.01    213.46      0  01:39       0.003     0.000
  YS02001920              0.01     43.82      0  01:39       0.000     0.000
  YS02001923              0.01    324.51      0  01:39       0.001     0.000
  YS02001926              0.01    340.14      0  01:39       0.002     0.000
  YS02001929              0.01    363.72      0  01:39       0.001     0.000
  YSB1171                 0.15    301.20      0  01:41       0.096     0.000
  
  
  **********************
  Storage Volume Summary
  **********************
  
  --------------------------------------------------------------------------------------------------
                         Average     Avg  Evap Exfil       Maximum     Max    Time of Max    Maximum
                          Volume    Pcnt  Pcnt  Pcnt        Volume    Pcnt     Occurrence    Outflow
  Storage Unit           1000 m3    Full  Loss  Loss       1000 m3    Full    days hr:min        LPS
  --------------------------------------------------------------------------------------------------
  CC-storage               2.042      32     0     0         3.965      62       0  02:10    1783.53
  JK-storage               0.068      23     0     0         0.213      73       0  01:39    2300.00
  XR-storage               0.949      66     0     0         1.111      77       0  08:00     380.00
  
  
  ***********************
  Outfall Loading Summary
  ***********************
  
  -----------------------------------------------------------
                         Flow       Avg       Max       Total
                         Freq      Flow      Flow      Volume
  Outfall Node           Pcnt       LPS       LPS    10^6 ltr
  -----------------------------------------------------------
  CC-1                  28.89    683.00    683.00       3.805
  CC-2                  32.76    683.00    683.00       3.910
  JK-1                   5.94   1000.00   1000.00       1.164
  JK-2                   7.35   1000.00   1000.00       1.437
  WSC                   99.95    632.23   1496.18      13.790
  -----------------------------------------------------------
  System                34.98   3998.23   4656.29      24.105
  
  
  ********************
  Link Flow Summary
  ********************
  
  -----------------------------------------------------------------------------
                                 Maximum  Time of Max   Maximum    Max/    Max/
                                  |Flow|   Occurrence   |Veloc|    Full    Full
  Link                 Type          LPS  days hr:min     m/sec    Flow   Depth
  -----------------------------------------------------------------------------
  1                    CONDUIT   1496.18     0  01:46      3.69    0.52    0.51
  HS02004478WS02006287 CONDUIT   2236.43     0  01:41      2.77    0.63    1.00
  HS02004479HS02004480 CONDUIT    520.34     0  01:38      0.74    0.50    1.00
  HS02004480HS02004478 CONDUIT   2211.93     0  01:37      3.16    9.32    1.00
  HS02004770HS02004777 CONDUIT    920.13     0  01:36      1.31    1.68    1.00
  HS02004777HS02004785 CONDUIT    920.70     0  01:36      1.45    1.13    1.00
  HS02004785HS02004788 CONDUIT    623.09     0  01:56      1.34    4.70    1.00
  HS02004788HS02004792 CONDUIT    815.62     0  01:56      1.44    0.54    1.00
  HS02004792HS02004799 CONDUIT   1525.60     0  01:37      2.18    0.93    1.00
  HS02004799HS02004480 CONDUIT   1731.74     0  01:37      2.47    2.19    1.00
  HS02004802HS02004478 CONDUIT    665.72     0  01:41      0.95    0.59    1.00
  HS02004807HS02004802 CONDUIT    665.27     0  01:41      0.95    1.27    1.00
  HS02004817HS02004807 CONDUIT    543.30     0  01:37      0.78    0.32    1.00
  HS02004817HS02004824 CONDUIT    543.05     0  01:37      0.78    0.24    1.00
  HS02004824HS02004830 CONDUIT    795.23     0  01:37      1.14    1.04    1.00
  HS02004830HS02004837 CONDUIT    825.10     0  01:37      1.29    0.82    1.00
  HS02004837HS02004842 CONDUIT   1009.83     0  01:37      1.44    0.60    1.00
  HS02004842HS02004848 CONDUIT   1006.81     0  01:37      1.66    0.59    1.00
  HS02004848HS02004852 CONDUIT   1188.76     0  01:38      1.78    1.34    1.00
  HS02004852HS02004856 CONDUIT   1125.47     0  01:38      1.61    1.29    1.00
  HS02004856HS02004862 CONDUIT   1204.16     0  01:38      1.76    1.20    1.00
  HS02004862HS02004870 CONDUIT   1356.72     0  01:38      2.00    1.47    1.00
  HS02004870HS02004876 CONDUIT   1356.35     0  01:39      1.97    0.90    1.00
  HS02004876HS02004881 CONDUIT   1497.05     0  01:39      2.28   15.92    1.00
  HS02004881HS02006253 CONDUIT   1485.96     0  01:39      2.68    0.29    1.00
  HS02004901HS02004770 CONDUIT    265.53     0  01:50      0.38    1.00    1.00
  WS02001211WS02001212 CONDUIT    305.45     0  01:43      0.54    0.23    0.71
  WS02001212WS02001213 CONDUIT    332.43     0  01:44      1.04    0.51    0.61
  WS02001213WS02003059 CONDUIT    283.41     0  01:42      0.47    0.47    0.91
  WS02003059WS02003060 CONDUIT    353.15     0  01:38      0.67    0.23    0.82
  WS02003060WS02003069 CONDUIT   1501.88     0  01:45      2.19    0.59    0.61
  WS02003066WSF200     CONDUIT   1283.22     0  01:39      3.62    0.22    0.39
  WS02003067WS02003066 CONDUIT   1286.06     0  01:39      2.02    0.41    0.58
  WS02003069WS02003072 CONDUIT   1493.11     0  01:46      1.89    0.72    0.66
  WS02003072WS02003073 CONDUIT   1493.18     0  01:45      2.05    3.23    0.62
  WS02004138WS02004139 CONDUIT    190.98     0  00:29      2.14    0.04    0.43
  WS02004139WS02001211 CONDUIT    341.72     0  01:41      0.55    0.43    0.62
  WS02004401WS02004402 CONDUIT   1300.10     0  01:37      1.66    1.56    1.00
  WS02004402WS02004403 CONDUIT   1300.43     0  01:37      1.66    1.87    1.00
  WS02004403WS02004404 CONDUIT   1301.55     0  01:37      1.66    0.94    1.00
  WS02004404WS02004405 CONDUIT   1305.70     0  01:37      1.66   12.79    1.00
  WS02004405WS02004406 CONDUIT   1309.02     0  01:37      1.67    2.58    1.00
  WS02004406WS02004407 CONDUIT   1309.57     0  01:37      2.08    0.59    0.94
  WS02004407WS02004409 CONDUIT   1275.30     0  01:36      2.18    0.45    0.94
  WS02004409WS02004410 CONDUIT   1270.97     0  01:39      1.67    1.64    1.00
  WS02004410WS02004411 CONDUIT   1271.60     0  01:39      1.63    1.74    1.00
  WS02004411WS02004412 CONDUIT   1270.94     0  01:40      1.62    1.81    1.00
  WS02004412WS02004413 CONDUIT   1271.24     0  01:39      1.62    0.85    1.00
  WS02004413WS02003067 CONDUIT   1271.48     0  01:39      1.98    0.54    0.76
  WS02006109WS02006110 CONDUIT   1159.33     0  01:35      2.31    2.23    1.00
  WS02006110WS02006113 CONDUIT   1159.29     0  01:35      2.31    1.05    1.00
  WS02006111WS02006112 CONDUIT   1128.34     0  01:37      2.24    0.54    1.00
  WS02006112WS02006115 CONDUIT   1301.52     0  01:37      1.66    0.77    1.00
  WS02006113WS02006111 CONDUIT   1128.52     0  01:37      2.69    1.35    1.00
  WS02006115WS02006116 CONDUIT   1299.82     0  01:37      1.65    1.67    1.00
  WS02006116WS02004401 CONDUIT   1299.58     0  01:37      1.65    1.79    1.00
  WS02006228WS02006109 CONDUIT   1254.14     0  01:41      2.50    5.48    1.00
  WS02006229WS02006228 CONDUIT   1254.72     0  01:41      2.50    4.16    1.00
  WS02006230WS02006229 CONDUIT    982.16     0  01:41      2.55   21.86    1.00
  WS02006231WS02006230 CONDUIT    498.62     0  03:20      1.30    7.56    1.00
  WS02006232WS02006231 CONDUIT    498.82     0  03:20      1.30    1.05    1.00
  WS02006234WS02006232 CONDUIT    498.99     0  03:20      1.41    1.01    1.00
  WS02006235WS02006234 CONDUIT    499.36     0  03:20      1.30    5.27    1.00
  WS02006238WS02006235 CONDUIT    415.91     0  01:54      1.45    0.93    1.00
  WS02006239WS02006238 CONDUIT    415.27     0  01:54      1.12    1.33    1.00
  WS02006240WS02006239 CONDUIT    416.57     0  02:11      1.26    1.31    1.00
  WS02006242WS02006240 CONDUIT    415.15     0  01:54      1.14    1.65    1.00
  WS02006243WS02006242 CONDUIT    401.24     0  03:19      1.34    0.86    1.00
  WS02006245WS02006243 CONDUIT    450.40     0  01:32      1.51    1.33    1.00
  WS02006247WS02006245 CONDUIT    476.61     0  01:31      1.51    3.78    1.00
  WS02006248WS02006247 CONDUIT    483.78     0  01:31      1.43    1.05    1.00
  WS02006249WS02006248 CONDUIT    522.39     0  01:31      1.50    2.86    1.00
  WS02006251WS02006249 CONDUIT   1326.12     0  01:41      3.45    3.82    1.00
  WS02006252WS02006251 CONDUIT    404.46     0  03:55     25.83    1.48    1.00
  WS02006253WS02006251 CONDUIT   1511.48     0  01:39      3.93    4.53    1.00
  WS02006256WS02006235 CONDUIT    288.93     0  00:00      4.23    3.06    1.00
  WS02006280WS02006229 CONDUIT   2236.98     0  01:41      4.69    0.48    1.00
  WS02006284WS02006280 CONDUIT   2236.20     0  01:41      3.11    0.94    1.00
  WS02006287WS02006284 CONDUIT   2235.99     0  01:41      2.92    1.04    1.00
  WSF200WS02003060     CONDUIT   1378.55     0  01:37      2.92    0.31    0.50
  YS02001580YS02001583 CONDUIT    233.86     0  01:36      1.04    0.91    1.00
  YS02001583YS02001586 CONDUIT    225.52     0  01:36      1.03    0.34    1.00
  YS02001586YS02001590 CONDUIT    318.02     0  01:54      1.30    0.56    1.00
  YS02001590YS02001593 CONDUIT    318.08     0  01:54      1.12    2.00    1.00
  YS02001593YS02001596 CONDUIT    318.13     0  01:43      1.73    0.50    1.00
  YS02001596YS02001600 CONDUIT    318.10     0  01:50      1.19    0.62    1.00
  YS02001600YS02001601 CONDUIT    317.99     0  01:54      1.12    0.55    1.00
  YS02001601YS02001602 CONDUIT    587.90     0  01:36      2.08    2.12    1.00
  YS02001602YS02001605 CONDUIT    587.66     0  01:36      2.08   12.44    1.00
  YS02001605YS02001607 CONDUIT    587.57     0  01:36      2.08    3.22    1.00
  YS02001607YS02001610 CONDUIT    556.82     0  01:36      0.75    0.53    1.00
  YS02001610YS02001613 CONDUIT    526.83     0  01:36      0.70    0.61    1.00
  YS02001613YS02001616 CONDUIT    485.47     0  02:11      0.69    0.42    1.00
  YS02001616YS02001619 CONDUIT    484.31     0  02:10      0.67    0.84    1.00
  YS02001619YS02001622 CONDUIT    867.90     0  01:38      1.36    1.28    1.00
  YS02001622YS02001625 CONDUIT    868.60     0  01:38      1.11    0.46    1.00
  YS02001625YS02001629 CONDUIT    867.43     0  01:38      1.10    0.41    1.00
  YS02001629YS02163301 CONDUIT    867.13     0  01:38      1.10    1.07    1.00
  YS02001633YS02163601 CONDUIT   1394.03     0  01:38      1.77    1.46    1.00
  YS02001641YS02001644 CONDUIT   1393.36     0  01:38      1.77    4.50    1.00
  YS02001644YS02001647 CONDUIT   1875.82     0  01:38      2.39    1.10    1.00
  YS02001647YS02001649 CONDUIT   1891.83     0  01:38      2.41    1.00    1.00
  YS02001649YS02001757 CONDUIT   2183.67     0  01:39      2.78    1.33    1.00
  YS02001652YS02001649 CONDUIT    581.41     0  01:42      0.93    0.29    1.00
  YS02001655YS02001652 CONDUIT    581.61     0  01:42      1.63    0.28    1.00
  YS02001658YS02001655 CONDUIT    681.81     0  01:39      2.10    0.29    1.00
  YS02001661YS02001658 CONDUIT    672.58     0  01:46      2.41    0.26    0.86
  YS02001664YS02001661 CONDUIT    518.78     0  01:40      2.33    0.16    0.53
  YS02001745YS02001748 CONDUIT    517.06     0  01:42      2.30    0.20    0.61
  YS02001748YS02001751 CONDUIT    486.65     0  01:43      1.91    0.25    0.97
  YS02001751YS02001754 CONDUIT    416.38     0  01:41      1.68    0.20    1.00
  YS02001754YS02001757 CONDUIT    416.94     0  01:41      0.65    0.17    1.00
  YS02001757CaochengTiaoxuchi CONDUIT   3303.87     0  01:42      4.54    1.43    1.00
  YS02001759YS02001757 CONDUIT   1220.34     0  01:39      1.55    0.87    1.00
  YS02001762YS02001759 CONDUIT    739.99     0  01:39      0.94    0.85    1.00
  YS02001765YS02001762 CONDUIT    730.76     0  01:39      0.93    0.69    1.00
  YS02001767YS02001765 CONDUIT    720.57     0  01:39      0.92    0.91    1.00
  YS02001770YS02001767 CONDUIT    712.92     0  01:39      0.95    2.82    1.00
  YS02001774YS02001770 CONDUIT    417.93     0  01:39      0.53    0.27    1.00
  YS02001779YS02001774 CONDUIT    422.39     0  01:39      0.54    0.21    1.00
  YS02001783YS02001784 CONDUIT   1152.30     0  01:40      2.29    1.59    1.00
  YS02001784YS02001785 CONDUIT   1153.45     0  01:40      2.29    2.68    1.00
  YS02001786YS02001788 CONDUIT   1155.09     0  01:39      2.49    2.23    0.89
  YS02001788YS02001790 CONDUIT   1165.59     0  01:39      2.70    0.86    0.84
  YS02001790YS02001791 CONDUIT   1282.48     0  01:44      3.42    1.40    0.70
  YS02001791YS02001793 CONDUIT   1235.68     0  01:40      6.78    0.53    0.44
  YS02001793JiankangQianchi CONDUIT   1234.39     0  01:55      2.47    0.10    0.65
  YS02001882YS02001884 CONDUIT     93.12     0  01:37      0.15    0.11    1.00
  YS02001884YS02001887 CONDUIT    149.50     0  01:37      0.19    0.20    1.00
  YS02001887YS02001890 CONDUIT    579.46     0  01:37      0.74    0.99    1.00
  YS02001890YS02001895 CONDUIT    583.08     0  01:37      0.74    0.27    1.00
  YS02001895YS02001898 CONDUIT    580.84     0  01:38      0.74    1.01    1.00
  YS02001898YS02001901 CONDUIT    586.72     0  01:38      0.75    0.38    1.00
  YS02001901YS02001904 CONDUIT    587.45     0  01:38      0.75    0.91    1.00
  YS02001904YS02001907 CONDUIT    584.99     0  01:38      0.74    0.20    1.00
  YS02001907YS02006553 CONDUIT    788.96     0  01:55      0.88    0.93    1.00
  YS02001910YS02001907 CONDUIT   1015.83     0  01:40      1.29    0.57    1.00
  YS02001915YS02001910 CONDUIT   1015.42     0  01:40      1.29    0.50    1.00
  YS02001918YS02001915 CONDUIT    648.40     0  01:38      0.86    0.36    1.00
  YS02001920YS02001918 CONDUIT    573.54     0  01:38      0.73    0.55    1.00
  YS02001923YS02001920 CONDUIT    586.12     0  01:38      0.82    0.26    1.00
  YS02001926YS02001923 CONDUIT    733.16     0  01:38      1.19    1.05    1.00
  YS02001929YS02001926 CONDUIT    528.91     0  01:39      1.18    0.25    1.00
  YS02006553YS02006556 CONDUIT    788.20     0  01:55      1.00    0.67    1.00
  YS02006556YS02006558 CONDUIT    789.70     0  01:55      1.01    0.62    1.00
  YS02006558YS02006561 CONDUIT   1175.03     0  01:37      4.16    2.60    1.00
  YS02006561YS02001783 CONDUIT   1151.96     0  01:40      2.29    0.60    1.00
  YS02163301YS02001633 CONDUIT    868.35     0  01:38      1.11    0.82    1.00
  YS02163601YS02164001 CONDUIT   1394.47     0  01:38      1.78    1.24    1.00
  YS02164001YS02001641 CONDUIT   1394.60     0  01:38      1.78    1.90    1.00
  YSB1154YSB6556       CONDUIT    277.30     0  01:40      0.72    0.50    1.00
  YSB1171HS02004479    CONDUIT    518.64     0  01:38      1.03    0.35    1.00
  YSB1174YSB1171       CONDUIT    249.70     0  01:38      0.65    0.38    1.00
  YSB6556YSB1171       CONDUIT    278.61     0  01:40      0.72    0.29    1.00
  CC-R1                PUMP       683.00     0  00:00              1.00
  CC-R2                PUMP       683.00     0  00:00              1.00
  CC-S1                PUMP       200.00     0  00:00              1.00
  CC-S2                PUMP       200.00     0  00:00              1.00
  JK-R1                PUMP      1000.00     0  00:00              1.00
  JK-R2                PUMP      1000.00     0  00:00              1.00
  JK-S                 PUMP       300.00     0  00:00              1.00
  XR-1                 PUMP        95.00     0  00:00              1.00
  XR-2                 PUMP        95.00     0  00:00              1.00
  XR-3                 PUMP        95.00     0  00:00              1.00
  XR-4                 PUMP        95.00     0  00:00              1.00
  
  
  ***************************
  Flow Classification Summary
  ***************************
  
  -------------------------------------------------------------------------------------
                      Adjusted    ---------- Fraction of Time in Flow Class ---------- 
                       /Actual         Up    Down  Sub   Sup   Up    Down  Norm  Inlet 
  Conduit               Length    Dry  Dry   Dry   Crit  Crit  Crit  Crit  Ltd   Ctrl  
  -------------------------------------------------------------------------------------
  1                       1.00   0.00  0.00  0.00  0.00  1.00  0.00  0.00  0.30  0.00
  HS02004478WS02006287    1.00   0.09  0.00  0.00  0.62  0.29  0.00  0.00  0.60  0.00
  HS02004479HS02004480    1.00   0.03  0.00  0.00  0.97  0.00  0.00  0.00  0.11  0.00
  HS02004480HS02004478    1.00   0.08  0.00  0.00  0.55  0.00  0.00  0.37  0.00  0.00
  HS02004770HS02004777    1.00   0.00  0.08  0.00  0.92  0.00  0.00  0.00  0.03  0.00
  HS02004777HS02004785    1.00   0.00  0.00  0.00  1.00  0.00  0.00  0.00  0.12  0.00
  HS02004785HS02004788    1.00   0.00  0.00  0.00  1.00  0.00  0.00  0.00  0.00  0.00
  HS02004788HS02004792    1.00   0.00  0.00  0.00  0.99  0.01  0.00  0.00  0.91  0.00
  HS02004792HS02004799    1.00   0.00  0.00  0.00  0.99  0.01  0.00  0.00  0.87  0.00
  HS02004799HS02004480    1.00   0.00  0.03  0.00  0.91  0.00  0.06  0.00  0.00  0.00
  HS02004802HS02004478    1.00   0.08  0.00  0.00  0.92  0.00  0.00  0.00  0.02  0.00
  HS02004807HS02004802    1.00   0.08  0.00  0.00  0.92  0.00  0.00  0.01  0.00  0.00
  HS02004817HS02004807    1.00   0.00  0.08  0.00  0.92  0.00  0.00  0.00  0.01  0.00
  HS02004817HS02004824    1.00   0.00  0.00  0.00  1.00  0.00  0.00  0.00  0.82  0.00
  HS02004824HS02004830    1.00   0.00  0.00  0.00  1.00  0.00  0.00  0.00  0.00  0.00
  HS02004830HS02004837    1.00   0.00  0.00  0.00  1.00  0.00  0.00  0.00  0.89  0.00
  HS02004837HS02004842    1.00   0.00  0.00  0.00  1.00  0.00  0.00  0.00  0.11  0.00
  HS02004842HS02004848    1.00   0.00  0.08  0.00  0.92  0.00  0.00  0.00  0.57  0.00
  HS02004848HS02004852    1.00   0.08  0.00  0.00  0.92  0.00  0.00  0.00  0.72  0.00
  HS02004852HS02004856    1.00   0.08  0.00  0.00  0.92  0.00  0.00  0.00  0.67  0.00
  HS02004856HS02004862    1.00   0.00  0.09  0.00  0.91  0.00  0.00  0.00  0.75  0.00
  HS02004862HS02004870    1.00   0.00  0.00  0.00  1.00  0.00  0.00  0.00  0.03  0.00
  HS02004870HS02004876    1.00   0.00  0.00  0.00  0.99  0.01  0.00  0.00  0.87  0.00
  HS02004876HS02004881    1.00   0.02  0.00  0.00  0.76  0.22  0.00  0.00  0.00  0.00
  HS02004881HS02006253    1.00   0.03  0.01  0.00  0.46  0.03  0.00  0.47  0.19  0.00
  HS02004901HS02004770    1.00   0.08  0.00  0.00  0.92  0.00  0.00  0.00  0.00  0.00
  WS02001211WS02001212    1.00   0.00  0.02  0.00  0.98  0.00  0.00  0.00  0.00  0.00
  WS02001212WS02001213    1.00   0.02  0.00  0.00  0.46  0.00  0.52  0.00  0.00  0.00
  WS02001213WS02003059    1.00   0.00  0.00  0.00  0.99  0.00  0.00  0.00  0.00  0.00
  WS02003059WS02003060    1.00   0.00  0.00  0.00  1.00  0.00  0.00  0.00  0.03  0.00
  WS02003060WS02003069    1.00   0.00  0.00  0.00  0.98  0.02  0.00  0.00  0.47  0.00
  WS02003066WSF200        1.00   0.06  0.00  0.00  0.00  0.94  0.00  0.00  0.66  0.00
  WS02003067WS02003066    1.00   0.05  0.01  0.00  0.94  0.00  0.00  0.00  0.00  0.00
  WS02003069WS02003072    1.00   0.00  0.00  0.00  1.00  0.00  0.00  0.00  0.66  0.00
  WS02003072WS02003073    1.00   0.00  0.00  0.00  0.00  0.00  0.00  1.00  0.00  0.00
  WS02004138WS02004139    1.00   0.00  0.00  0.00  0.98  0.01  0.00  0.01  0.98  0.00
  WS02004139WS02001211    1.00   0.00  0.00  0.00  0.99  0.00  0.00  0.00  0.00  0.00
  WS02004401WS02004402    1.00   0.02  0.00  0.00  0.98  0.00  0.00  0.00  0.00  0.00
  WS02004402WS02004403    1.00   0.02  0.00  0.00  0.98  0.00  0.00  0.00  0.00  0.00
  WS02004403WS02004404    1.00   0.00  0.03  0.00  0.97  0.00  0.00  0.00  0.00  0.00
  WS02004404WS02004405    1.00   0.00  0.00  0.00  1.00  0.00  0.00  0.00  0.01  0.00
  WS02004405WS02004406    1.00   0.00  0.00  0.00  1.00  0.00  0.00  0.00  0.00  0.00
  WS02004406WS02004407    1.00   0.00  0.04  0.00  0.96  0.00  0.00  0.00  0.00  0.00
  WS02004407WS02004409    1.00   0.04  0.00  0.00  0.96  0.00  0.00  0.00  0.84  0.00
  WS02004409WS02004410    1.00   0.04  0.00  0.00  0.96  0.00  0.00  0.00  0.01  0.00
  WS02004410WS02004411    1.00   0.04  0.00  0.00  0.96  0.00  0.00  0.00  0.00  0.00
  WS02004411WS02004412    1.00   0.04  0.00  0.00  0.96  0.00  0.00  0.00  0.00  0.00
  WS02004412WS02004413    1.00   0.04  0.00  0.00  0.96  0.00  0.00  0.00  0.01  0.00
  WS02004413WS02003067    1.00   0.04  0.01  0.00  0.00  0.00  0.95  0.00  0.00  0.00
  WS02006109WS02006110    1.00   0.00  0.01  0.00  0.98  0.00  0.01  0.00  0.00  0.00
  WS02006110WS02006113    1.00   0.01  0.01  0.00  0.98  0.00  0.00  0.00  0.00  0.00
  WS02006111WS02006112    1.00   0.02  0.00  0.00  0.98  0.00  0.00  0.00  0.77  0.00
  WS02006112WS02006115    1.00   0.02  0.00  0.00  0.97  0.00  0.00  0.00  0.00  0.00
  WS02006113WS02006111    1.00   0.02  0.00  0.00  0.29  0.69  0.00  0.00  0.07  0.00
  WS02006115WS02006116    1.00   0.02  0.00  0.00  0.97  0.00  0.00  0.01  0.00  0.00
  WS02006116WS02004401    1.00   0.02  0.00  0.00  0.98  0.00  0.00  0.00  0.00  0.00
  WS02006228WS02006109    1.00   0.00  0.00  0.00  1.00  0.00  0.00  0.00  0.00  0.00
  WS02006229WS02006228    1.00   0.00  0.00  0.00  0.99  0.00  0.00  0.01  0.00  0.00
  WS02006230WS02006229    1.00   0.00  0.00  0.00  0.99  0.00  0.00  0.01  0.04  0.00
  WS02006231WS02006230    1.00   0.00  0.00  0.00  0.45  0.00  0.55  0.00  0.00  0.00
  WS02006232WS02006231    1.00   0.00  0.00  0.00  0.99  0.00  0.00  0.00  0.00  0.00
  WS02006234WS02006232    1.00   0.00  0.00  0.00  1.00  0.00  0.00  0.00  0.05  0.00
  WS02006235WS02006234    1.00   0.00  0.00  0.00  0.94  0.00  0.06  0.00  0.00  0.00
  WS02006238WS02006235    1.00   0.00  0.00  0.00  1.00  0.00  0.00  0.00  0.00  0.00
  WS02006239WS02006238    1.00   0.00  0.00  0.00  1.00  0.00  0.00  0.00  0.12  0.00
  WS02006240WS02006239    1.00   0.00  0.00  0.00  0.80  0.00  0.00  0.20  0.05  0.00
  WS02006242WS02006240    1.00   0.00  0.00  0.00  0.99  0.00  0.01  0.00  0.00  0.00
  WS02006243WS02006242    1.00   0.00  0.00  0.00  0.99  0.00  0.00  0.00  0.63  0.00
  WS02006245WS02006243    1.00   0.00  0.00  0.00  0.85  0.00  0.00  0.15  0.01  0.00
  WS02006247WS02006245    1.00   0.00  0.00  0.00  0.97  0.00  0.00  0.03  0.00  0.00
  WS02006248WS02006247    1.00   0.00  0.00  0.00  1.00  0.00  0.00  0.00  0.56  0.00
  WS02006249WS02006248    1.00   0.00  0.00  0.00  0.59  0.00  0.41  0.00  0.00  0.00
  WS02006251WS02006249    1.00   0.00  0.00  0.00  1.00  0.00  0.00  0.00  0.59  0.00
  WS02006252WS02006251    1.00   0.00  0.38  0.00  0.31  0.00  0.31  0.00  0.00  0.00
  WS02006253WS02006251    1.00   0.00  0.00  0.00  0.98  0.00  0.02  0.00  0.01  0.00
  WS02006256WS02006235    1.00   0.00  0.00  0.00  0.98  0.02  0.00  0.00  0.01  0.00
  WS02006280WS02006229    1.00   0.08  0.00  0.00  0.21  0.07  0.00  0.64  0.02  0.00
  WS02006284WS02006280    1.00   0.08  0.00  0.00  0.14  0.02  0.00  0.76  0.00  0.00
  WS02006287WS02006284    1.00   0.07  0.02  0.00  0.45  0.46  0.00  0.00  0.65  0.00
  WSF200WS02003060        1.00   0.00  0.06  0.00  0.53  0.41  0.00  0.00  0.64  0.00
  YS02001580YS02001583    1.00   0.14  0.59  0.00  0.26  0.00  0.00  0.00  0.71  0.00
  YS02001583YS02001586    1.00   0.27  0.33  0.00  0.40  0.00  0.00  0.00  0.71  0.00
  YS02001586YS02001590    1.00   0.08  0.00  0.00  0.62  0.03  0.00  0.27  0.34  0.00
  YS02001590YS02001593    1.00   0.08  0.00  0.00  0.16  0.00  0.76  0.00  0.00  0.00
  YS02001593YS02001596    1.00   0.08  0.00  0.00  0.18  0.01  0.00  0.72  0.02  0.00
  YS02001596YS02001600    1.00   0.08  0.00  0.00  0.30  0.02  0.00  0.61  0.06  0.00
  YS02001600YS02001601    1.00   0.08  0.00  0.00  0.92  0.00  0.00  0.00  0.61  0.00
  YS02001601YS02001602    1.00   0.08  0.00  0.00  0.92  0.00  0.00  0.00  0.00  0.00
  YS02001602YS02001605    1.00   0.08  0.00  0.00  0.92  0.00  0.00  0.00  0.00  0.00
  YS02001605YS02001607    1.00   0.08  0.00  0.00  0.92  0.00  0.00  0.00  0.00  0.00
  YS02001607YS02001610    1.00   0.08  0.00  0.00  0.92  0.00  0.00  0.00  0.01  0.00
  YS02001610YS02001613    1.00   0.08  0.00  0.00  0.92  0.00  0.00  0.00  0.00  0.00
  YS02001613YS02001616    1.00   0.08  0.00  0.00  0.92  0.00  0.00  0.00  0.00  0.00
  YS02001616YS02001619    1.00   0.08  0.00  0.00  0.92  0.00  0.00  0.00  0.00  0.00
  YS02001619YS02001622    1.00   0.08  0.00  0.00  0.92  0.00  0.00  0.00  0.30  0.00
  YS02001622YS02001625    1.00   0.08  0.00  0.00  0.92  0.00  0.00  0.00  0.04  0.00
  YS02001625YS02001629    1.00   0.08  0.02  0.00  0.22  0.00  0.68  0.00  0.00  0.00
  YS02001629YS02163301    1.00   0.09  0.00  0.00  0.91  0.00  0.00  0.00  0.00  0.00
  YS02001633YS02163601    1.00   0.00  0.01  0.00  0.99  0.00  0.00  0.00  0.15  0.00
  YS02001641YS02001644    1.00   0.00  0.00  0.00  1.00  0.00  0.00  0.00  0.00  0.00
  YS02001644YS02001647    1.00   0.00  0.10  0.00  0.90  0.00  0.00  0.00  0.00  0.00
  YS02001647YS02001649    1.00   0.00  0.09  0.00  0.47  0.43  0.00  0.00  0.58  0.00
  YS02001649YS02001757    1.00   0.00  0.00  0.00  0.56  0.44  0.00  0.00  0.52  0.00
  YS02001652YS02001649    1.00   0.00  0.00  0.00  0.98  0.02  0.00  0.00  0.74  0.00
  YS02001655YS02001652    1.00   0.00  0.00  0.00  0.24  0.04  0.00  0.72  0.08  0.00
  YS02001658YS02001655    1.00   0.00  0.08  0.00  0.57  0.35  0.00  0.00  0.72  0.00
  YS02001661YS02001658    1.00   0.08  0.00  0.00  0.36  0.55  0.00  0.00  0.77  0.00
  YS02001664YS02001661    1.00   0.08  0.00  0.00  0.71  0.21  0.00  0.00  0.86  0.00
  YS02001745YS02001748    1.00   0.00  0.00  0.00  0.09  0.02  0.00  0.89  0.07  0.00
  YS02001748YS02001751    1.00   0.00  0.00  0.00  0.70  0.30  0.00  0.00  0.80  0.00
  YS02001751YS02001754    1.00   0.00  0.00  0.00  0.20  0.00  0.00  0.80  0.03  0.00
  YS02001754YS02001757    1.00   0.00  0.00  0.00  1.00  0.00  0.00  0.00  0.86  0.00
  YS02001757CaochengTiaoxuchi    1.00   0.00  0.00  0.00  0.96  0.04  0.00  0.00  0.84  0.00
  YS02001759YS02001757    1.00   0.00  0.00  0.00  1.00  0.00  0.00  0.00  0.63  0.00
  YS02001762YS02001759    1.00   0.00  0.00  0.00  1.00  0.00  0.00  0.00  0.03  0.00
  YS02001765YS02001762    1.00   0.00  0.00  0.00  1.00  0.00  0.00  0.00  0.74  0.00
  YS02001767YS02001765    1.00   0.00  0.00  0.00  1.00  0.00  0.00  0.00  0.00  0.00
  YS02001770YS02001767    1.00   0.00  0.00  0.00  1.00  0.00  0.00  0.00  0.00  0.00
  YS02001774YS02001770    1.00   0.00  0.08  0.00  0.81  0.00  0.11  0.00  0.03  0.00
  YS02001779YS02001774    1.00   0.00  0.00  0.00  1.00  0.00  0.00  0.00  0.79  0.00
  YS02001783YS02001784    1.00   0.00  0.10  0.00  0.90  0.00  0.00  0.00  0.56  0.00
  YS02001784YS02001785    1.00   0.00  0.00  0.00  1.00  0.00  0.00  0.00  0.16  0.00
  YS02001786YS02001788    1.00   0.00  0.00  0.00  0.63  0.37  0.00  0.00  0.00  0.00
  YS02001788YS02001790    1.00   0.00  0.00  0.00  0.14  0.86  0.00  0.00  0.82  0.00
  YS02001790YS02001791    1.00   0.00  0.00  0.00  0.01  0.99  0.00  0.00  0.17  0.00
  YS02001791YS02001793    1.00   0.00  0.00  0.00  0.00  1.00  0.00  0.00  0.01  0.00
  YS02001793JiankangQianchi    1.00   0.00  0.00  0.00  0.97  0.03  0.00  0.00  0.98  0.00
  YS02001882YS02001884    1.00   0.09  0.00  0.00  0.91  0.00  0.00  0.00  0.00  0.00
  YS02001884YS02001887    1.00   0.05  0.02  0.00  0.93  0.00  0.00  0.00  0.00  0.00
  YS02001887YS02001890    1.00   0.00  0.00  0.00  0.97  0.00  0.03  0.00  0.00  0.00
  YS02001890YS02001895    1.00   0.00  0.09  0.00  0.91  0.00  0.00  0.00  0.00  0.00
  YS02001895YS02001898    1.00   0.09  0.00  0.00  0.89  0.00  0.01  0.00  0.00  0.00
  YS02001898YS02001901    1.00   0.09  0.00  0.00  0.91  0.00  0.00  0.00  0.01  0.00
  YS02001901YS02001904    1.00   0.09  0.00  0.00  0.91  0.00  0.00  0.00  0.00  0.00
  YS02001904YS02001907    1.00   0.00  0.09  0.00  0.91  0.00  0.00  0.00  0.00  0.00
  YS02001907YS02006553    1.00   0.00  0.02  0.00  0.98  0.00  0.00  0.00  0.00  0.00
  YS02001910YS02001907    1.00   0.00  0.00  0.00  0.97  0.00  0.00  0.02  0.12  0.00
  YS02001915YS02001910    1.00   0.00  0.00  0.00  0.98  0.02  0.00  0.00  0.16  0.00
  YS02001918YS02001915    1.00   0.00  0.00  0.00  0.98  0.02  0.00  0.00  0.76  0.00
  YS02001920YS02001918    1.00   0.00  0.00  0.00  1.00  0.00  0.00  0.00  0.00  0.00
  YS02001923YS02001920    1.00   0.00  0.00  0.00  1.00  0.00  0.00  0.00  0.93  0.00
  YS02001926YS02001923    1.00   0.00  0.05  0.00  0.07  0.00  0.88  0.00  0.00  0.00
  YS02001929YS02001926    1.00   0.00  0.08  0.00  0.92  0.00  0.00  0.00  0.83  0.00
  YS02006553YS02006556    1.00   0.01  0.00  0.00  0.99  0.00  0.00  0.00  0.03  0.00
  YS02006556YS02006558    1.00   0.00  0.00  0.00  1.00  0.00  0.00  0.00  0.00  0.00
  YS02006558YS02006561    1.00   0.10  0.00  0.00  0.06  0.84  0.00  0.00  0.20  0.00
  YS02006561YS02001783    1.00   0.10  0.00  0.00  0.11  0.79  0.00  0.00  0.70  0.00
  YS02163301YS02001633    1.00   0.00  0.09  0.00  0.91  0.00  0.00  0.00  0.00  0.00
  YS02163601YS02164001    1.00   0.00  0.06  0.00  0.94  0.00  0.00  0.00  0.00  0.00
  YS02164001YS02001641    1.00   0.01  0.05  0.00  0.94  0.00  0.00  0.00  0.06  0.00
  YSB1154YSB6556          1.00   0.08  0.00  0.00  0.92  0.00  0.00  0.00  0.02  0.00
  YSB1171HS02004479       1.00   0.04  0.00  0.00  0.96  0.00  0.00  0.01  0.10  0.00
  YSB1174YSB1171          1.00   0.04  0.02  0.00  0.94  0.00  0.00  0.00  0.00  0.00
  YSB6556YSB1171          1.00   0.04  0.04  0.00  0.92  0.00  0.00  0.00  0.00  0.00
  
  
  *************************
  Conduit Surcharge Summary
  *************************
  
  ----------------------------------------------------------------------------
                                                           Hours        Hours 
                         --------- Hours Full --------   Above Full   Capacity
  Conduit                Both Ends  Upstream  Dnstream   Normal Flow   Limited
  ----------------------------------------------------------------------------
  HS02004478WS02006287        0.40      0.40      0.55      0.01         0.01
  HS02004479HS02004480        0.57      0.57      0.58      0.01         0.01
  HS02004480HS02004478        0.50      0.56      0.50      1.66         0.50
  HS02004770HS02004777        0.48      0.48      0.49      0.11         0.09
  HS02004777HS02004785        0.43      0.43      0.49      0.01         0.01
  HS02004785HS02004788        0.42      0.43      0.42      1.36         0.41
  HS02004788HS02004792        0.42      0.42      0.53      0.01         0.01
  HS02004792HS02004799        0.53      0.53      0.64      0.01         0.01
  HS02004799HS02004480        0.56      0.56      0.64      0.74         0.01
  HS02004802HS02004478        0.51      0.51      0.57      0.01         0.01
  HS02004807HS02004802        0.55      0.55      0.57      0.11         0.11
  HS02004817HS02004807        0.55      0.55      1.14      0.01         0.01
  HS02004817HS02004824        0.42      0.42      1.14      0.01         0.01
  HS02004824HS02004830        0.39      0.39      0.42      0.01         0.01
  HS02004830HS02004837        0.34      0.34      0.39      0.01         0.01
  HS02004837HS02004842        0.34      0.34      0.48      0.01         0.01
  HS02004842HS02004848        0.32      0.32      0.48      0.01         0.01
  HS02004848HS02004852        0.32      0.32      0.35      0.02         0.01
  HS02004852HS02004856        0.35      0.35      0.37      0.02         0.01
  HS02004856HS02004862        0.33      0.33      0.37      0.01         0.01
  HS02004862HS02004870        0.36      0.37      0.39      0.02         0.01
  HS02004870HS02004876        0.39      0.39      0.46      0.01         0.01
  HS02004876HS02004881        0.44      0.46      0.44      1.42         0.44
  HS02004881HS02006253        0.44      0.44      1.62      0.01         0.01
  HS02004901HS02004770        0.48      0.48      0.49      0.01         0.01
  WS02003072WS02003073        0.01      0.01      0.01      2.17         0.01
  WS02004401WS02004402        1.59      1.59      1.61      1.40         1.34
  WS02004402WS02004403        1.61      1.61      1.62      1.60         1.57
  WS02004403WS02004404        1.62      1.62      1.72      0.01         0.02
  WS02004404WS02004405        1.69      1.72      1.69      2.93         1.69
  WS02004405WS02004406        1.65      1.69      1.65      1.87         1.65
  WS02004406WS02004407        0.01      0.01      1.65      0.01         0.01
  WS02004407WS02004409        0.01      0.01      0.85      0.01         0.01
  WS02004409WS02004410        0.81      0.85      0.81      1.52         0.81
  WS02004410WS02004411        0.75      0.81      0.75      1.57         0.75
  WS02004411WS02004412        0.65      0.75      0.65      1.59         0.65
  WS02004412WS02004413        0.65      0.65      1.28      0.01         0.01
  WS02004413WS02003067        0.01      0.01      1.28      0.01         0.01
  WS02006109WS02006110        1.84      1.84      2.02      1.85         0.01
  WS02006110WS02006113        1.19      1.19      2.01      0.33         0.01
  WS02006111WS02006112        1.12      1.12      2.12      0.01         0.01
  WS02006112WS02006115        1.53      1.53      1.92      0.01         0.01
  WS02006113WS02006111        1.15      1.19      1.15      1.36         1.15
  WS02006115WS02006116        1.55      1.55      1.55      1.51         1.49
  WS02006116WS02004401        1.59      1.59      1.59      1.58         1.56
  WS02006228WS02006109        1.99      2.02      1.99      2.20         1.99
  WS02006229WS02006228        1.99      2.00      1.99      2.08         1.98
  WS02006230WS02006229        2.04      2.04      2.05      3.40         1.08
  WS02006231WS02006230        1.72      1.72      1.76      2.89         0.89
  WS02006232WS02006231        1.75      1.75      1.91      0.01         0.13
  WS02006234WS02006232        1.83      1.83      1.91      0.01         0.02
  WS02006235WS02006234        1.79      1.79      1.85      2.40         0.87
  WS02006238WS02006235        1.86      1.86      1.89      0.01         0.29
  WS02006239WS02006238        1.87      1.88      1.87      1.03         0.30
  WS02006240WS02006239        1.81      1.82      1.81      1.00         0.26
  WS02006242WS02006240        1.80      1.80      1.88      1.34         0.81
  WS02006243WS02006242        1.79      1.79      1.87      0.01         0.01
  WS02006245WS02006243        1.76      1.76      1.77      0.20         0.17
  WS02006247WS02006245        1.75      1.78      1.75      1.89         0.62
  WS02006248WS02006247        1.74      1.74      1.77      0.01         0.02
  WS02006249WS02006248        1.73      1.73      1.74      0.89         0.01
  WS02006251WS02006249        1.73      1.74      1.74      1.75         1.64
  WS02006252WS02006251        1.84      1.84      1.87      1.53         0.01
  WS02006253WS02006251        1.73      1.74      1.76      0.67         0.03
  WS02006256WS02006235        2.61      2.68      6.87      0.80         0.01
  WS02006280WS02006229        0.67      0.67      0.80      0.01         0.01
  WS02006284WS02006280        0.58      0.58      0.66      0.01         0.01
  WS02006287WS02006284        0.49      0.49      0.59      0.17         0.17
  YS02001580YS02001583        0.46      0.47      0.53      0.01         0.01
  YS02001583YS02001586        0.47      0.47      0.63      0.01         0.01
  YS02001586YS02001590        0.64      0.64      0.71      0.01         0.01
  YS02001590YS02001593        0.70      0.70      0.72      0.77         0.01
  YS02001593YS02001596        0.71      0.71      0.80      0.01         0.01
  YS02001596YS02001600        0.84      0.84      0.95      0.01         0.01
  YS02001600YS02001601        1.02      1.02      1.39      0.01         0.01
  YS02001601YS02001602        1.23      1.23      1.45      0.97         0.01
  YS02001602YS02001605        1.16      1.16      1.23      2.13         0.01
  YS02001605YS02001607        1.11      1.16      1.11      1.32         1.11
  YS02001607YS02001610        0.65      0.65      0.68      0.01         0.01
  YS02001610YS02001613        0.65      0.65      0.68      0.01         0.01
  YS02001613YS02001616        0.61      0.61      0.65      0.01         0.01
  YS02001616YS02001619        0.59      0.59      0.61      0.01         0.01
  YS02001619YS02001622        0.59      0.59      0.59      0.75         0.56
  YS02001622YS02001625        0.59      0.59      0.77      0.01         0.01
  YS02001625YS02001629        0.53      0.53      0.77      0.01         0.01
  YS02001629YS02163301        0.75      0.75      0.76      0.28         0.24
  YS02001633YS02163601        0.78      0.78      0.80      0.52         0.51
  YS02001641YS02001644        0.68      0.71      0.68      1.51         0.68
  YS02001644YS02001647        0.46      0.46      0.68      0.03         0.01
  YS02001647YS02001649        0.46      0.46      0.58      0.01         0.01
  YS02001649YS02001757        0.58      0.58      0.63      0.36         0.33
  YS02001652YS02001649        0.39      0.39      0.58      0.01         0.01
  YS02001655YS02001652        0.12      0.12      0.34      0.01         0.01
  YS02001658YS02001655        0.02      0.02      0.12      0.01         0.01
  YS02001661YS02001658        0.01      0.01      0.02      0.01         0.01
  YS02001748YS02001751        0.01      0.01      0.04      0.01         0.01
  YS02001751YS02001754        0.04      0.04      0.12      0.01         0.01
  YS02001754YS02001757        0.20      0.20      0.63      0.01         0.01
  YS02001757CaochengTiaoxuchi        0.46      0.63      1.14      0.34         0.15
  YS02001759YS02001757        0.52      0.52      0.63      0.01         0.01
  YS02001762YS02001759        0.48      0.48      0.52      0.01         0.02
  YS02001765YS02001762        0.43      0.43      0.48      0.01         0.01
  YS02001767YS02001765        0.39      0.39      0.43      0.01         0.02
  YS02001770YS02001767        0.39      0.39      0.39      0.45         0.32
  YS02001774YS02001770        0.35      0.35      0.47      0.01         0.01
  YS02001779YS02001774        0.17      0.17      0.47      0.01         0.01
  YS02001783YS02001784        0.43      0.46      0.43      0.59         0.43
  YS02001784YS02001785        0.33      0.43      0.33      0.81         0.33
  YS02001786YS02001788        0.01      0.33      0.01      0.67         0.01
  YS02001790YS02001791        0.01      0.01      0.01      0.42         0.01
  YS02001793JiankangQianchi        0.01      0.01      6.92      0.01         0.01
  YS02001882YS02001884        0.40      0.40      0.41      0.01         0.01
  YS02001884YS02001887        0.43      0.43      0.45      0.01         0.01
  YS02001887YS02001890        0.46      0.46      0.47      0.01         0.01
  YS02001890YS02001895        0.39      0.39      0.49      0.01         0.01
  YS02001895YS02001898        0.39      0.39      0.39      0.01         0.01
  YS02001898YS02001901        0.40      0.40      0.44      0.01         0.01
  YS02001901YS02001904        0.43      0.43      0.44      0.01         0.01
  YS02001904YS02001907        0.43      0.43      0.65      0.01         0.01
  YS02001907YS02006553        0.82      0.82      0.89      0.01         0.01
  YS02001910YS02001907        0.49      0.49      0.64      0.01         0.01
  YS02001915YS02001910        0.40      0.40      0.49      0.01         0.01
  YS02001918YS02001915        0.32      0.32      0.40      0.01         0.01
  YS02001920YS02001918        0.32      0.32      0.33      0.01         0.01
  YS02001923YS02001920        0.27      0.27      0.33      0.01         0.01
  YS02001926YS02001923        0.01      0.01      0.01      0.01         0.01
  YS02001929YS02001926        0.01      0.01      0.01      0.01         0.01
  YS02006553YS02006556        0.56      0.56      0.65      0.01         0.01
  YS02006556YS02006558        0.60      0.60      0.67      0.01         0.01
  YS02006558YS02006561        0.35      0.55      0.35      0.77         0.35
  YS02006561YS02001783        0.28      0.28      0.46      0.01         0.01
  YS02163301YS02001633        0.76      0.76      0.80      0.01         0.01
  YS02163601YS02164001        0.72      0.72      0.80      0.17         0.01
  YS02164001YS02001641        0.71      0.72      0.71      0.84         0.69
  YSB1154YSB6556              0.61      0.61      0.76      0.01         0.01
  YSB1171HS02004479           0.53      0.53      0.77      0.01         0.01
  YSB1174YSB1171              0.67      0.67      1.03      0.01         0.01
  YSB6556YSB1171              0.61      0.61      1.20      0.01         0.01
  
  
  ***************
  Pumping Summary
  ***************
  
  ---------------------------------------------------------------------------------------------------------
                                                  Min       Avg       Max     Total     Power    % Time Off
                        Percent   Number of      Flow      Flow      Flow    Volume     Usage    Pump Curve
  Pump                 Utilized   Start-Ups       LPS       LPS       LPS  10^6 ltr     Kw-hr    Low   High
  ---------------------------------------------------------------------------------------------------------
  CC-R1                   19.38          19      0.00    683.00    683.00     3.811     68.42    0.0   32.9
  CC-R2                   19.94          28      0.00    683.00    683.00     3.922     69.47    0.0   52.3
  CC-S1                   25.67          27      0.00    200.00    200.00     1.479     10.32    0.0    0.0
  CC-S2                   23.62          25      0.00    200.00    200.00     1.360      9.57    0.0    0.0
  JK-R1                    4.04          11      0.00   1000.00   1000.00     1.163      9.60    0.0    0.0
  JK-R2                    4.99          17      0.00   1000.00   1000.00     1.436     12.76    0.0    0.0
  JK-S                    13.97          42      0.00    300.00    300.00     1.207     21.94    0.0    0.0
  XR-1                    97.91           2      0.00     95.00     95.00     2.679      9.61    0.0    0.0
  XR-2                    93.94           2      0.00     95.00     95.00     2.570      8.77    0.0    0.0
  XR-3                     0.00           1      0.00     95.00     95.00     0.000      0.00    0.0    0.0
  XR-4                     0.00           1      0.00     95.00     95.00     0.000      0.00    0.0    0.0
  

  Analysis begun on:  Fri Feb 24 05:44:13 2023
  Analysis ended on:  Fri Feb 24 05:44:16 2023
  Total elapsed time: 00:00:03