
  OWA STORM WATER MANAGEMENT MODEL - VERSION v5.1.14 (OWA 2023-01-25)
  --------------------------------------------------------------

  WARNING 04: minimum elevation drop used for Conduit WS02004404WS02004405
  WARNING 03: negative offset ignored for Link YS02001904YS02001907
  
  *********************************************************
  NOTE: The summary statistics displayed in this report are
  based on results found at every computational time step,  
  not just on results from each reporting time step.
  *********************************************************
  
  ****************
  Analysis Options
  ****************
  Flow Units ............... LPS
  Process Models:
    Rainfall/Runoff ........ YES
    RDII ................... NO
    Snowmelt ............... NO
    Groundwater ............ NO
    Flow Routing ........... YES
    Ponding Allowed ........ NO
    Water Quality .......... NO
  Infiltration Method ...... HORTON
  Flow Routing Method ...... DYNWAVE
  Surcharge Method ......... EXTRAN
  Starting Date ............ 08/28/2015 08:00:00
  Ending Date .............. 08/28/2015 16:00:00
  Antecedent Dry Days ...... 8.0
  Report Time Step ......... 00:01:00
  Wet Time Step ............ 00:01:00
  Dry Time Step ............ 00:01:00
  Routing Time Step ........ 30.00 sec
  Variable Time Step ....... YES
  Maximum Trials ........... 8
  Number of Threads ........ 1
  Head Tolerance ........... 0.001500 m
  
  
  **************************        Volume         Depth
  Runoff Quantity Continuity     hectare-m            mm
  **************************     ---------       -------
  Total Precipitation ......         2.716        44.828
  Evaporation Loss .........         0.000         0.000
  Infiltration Loss ........         0.227         3.749
  Surface Runoff ...........         2.428        40.084
  Final Storage ............         0.061         1.005
  Continuity Error (%) .....        -0.023
  
  
  **************************        Volume        Volume
  Flow Routing Continuity        hectare-m      10^6 ltr
  **************************     ---------     ---------
  Dry Weather Inflow .......         0.630         6.296
  Wet Weather Inflow .......         2.428        24.283
  Groundwater Inflow .......         0.000         0.000
  RDII Inflow ..............         0.000         0.000
  External Inflow ..........         0.105         1.045
  External Outflow .........         2.180        21.800
  Flooding Loss ............         0.976         9.764
  Evaporation Loss .........         0.000         0.000
  Exfiltration Loss ........         0.000         0.000
  Initial Stored Volume ....         0.303         3.031
  Final Stored Volume ......         0.322         3.217
  Continuity Error (%) .....        -0.363
  
  
  *************************
  Highest Continuity Errors
  *************************
  Node YS02001884 (5.08%)
  Node YS02001583 (-5.06%)
  Node WS02006256 (-2.81%)
  Node HS02004842 (2.02%)
  Node YS02001774 (1.71%)
  
  
  ***************************
  Time-Step Critical Elements
  ***************************
  Link WS02006252WS02006251 (34.74%)
  Link WS02006280WS02006229 (25.22%)
  Link WS02006238WS02006235 (13.96%)
  Link WS02004404WS02004405 (6.77%)
  Link YS02001791YS02001793 (4.60%)
  
  
  ********************************
  Highest Flow Instability Indexes
  ********************************
  Link WS02006113WS02006111 (39)
  Link WS02006111WS02006112 (23)
  Link WS02006252WS02006251 (19)
  Link WS02006238WS02006235 (18)
  Link WS02006256WS02006235 (18)
  
  
  *************************
  Routing Time Step Summary
  *************************
  Minimum Time Step           :     0.00 sec
  Average Time Step           :     1.84 sec
  Maximum Time Step           :     6.46 sec
  Percent in Steady State     :    -0.00
  Average Iterations per Step :     3.33
  Percent Not Converging      :    14.28
  
  
  ***************************
  Subcatchment Runoff Summary
  ***************************
  
  ------------------------------------------------------------------------------------------------------------------------------
                            Total      Total      Total      Total     Imperv       Perv      Total       Total     Peak  Runoff
                           Precip      Runon       Evap      Infil     Runoff     Runoff     Runoff      Runoff   Runoff   Coeff
  Subcatchment                 mm         mm         mm         mm         mm         mm         mm    10^6 ltr      LPS
  ------------------------------------------------------------------------------------------------------------------------------
  sub0                      44.83       0.00       0.00       0.94      40.44       2.20      42.64        0.03    28.16   0.951
  sub1                      44.83       0.00       0.00       1.60      38.65       3.33      41.98        0.28   186.23   0.936
  sub10                     44.83       0.00       0.00       1.13      39.96       2.46      42.42        0.47   318.37   0.946
  sub11                     44.83       0.00       0.00       1.11      39.98       2.48      42.45        0.49   353.65   0.947
  sub12                     44.83       0.00       0.00       1.81      37.82       4.02      41.85        0.37   287.83   0.933
  sub14                     44.83       0.00       0.00       1.27      39.53       2.77      42.30        0.40   281.70   0.944
  sub15                     44.83       0.00       0.00       5.01      30.41       8.44      38.85        0.67   427.06   0.867
  sub16                     44.83       0.00       0.00       5.17      29.12       9.63      38.76        0.41   287.75   0.865
  sub17                     44.83       0.00       0.00       5.04      29.56       9.31      38.87        0.33   233.33   0.867
  sub2                      44.83       0.00       0.00       7.14      27.34       9.45      36.79        0.34   184.15   0.821
  sub22                     44.83       0.00       0.00       7.60      24.77      11.68      36.45        2.30  1409.38   0.813
  sub23                     44.83       0.00       0.00       6.19      27.38      10.40      37.78        1.80  1175.05   0.843
  sub3                      44.83       0.00       0.00       7.71      27.30       8.88      36.18        0.81   395.40   0.807
  sub4                      44.83       0.00       0.00       1.80      38.48       3.13      41.62        0.87   440.53   0.928
  sub5                      44.83       0.00       0.00       0.98      40.39       2.15      42.54        0.48   321.84   0.949
  sub60                     44.83       0.00       0.00       1.70      38.24       3.68      41.92        0.55   400.87   0.935
  sub61                     44.83       0.00       0.00       2.47      36.07       5.15      41.23        0.76   555.03   0.920
  sub62                     44.83       0.00       0.00       1.13      39.95       2.45      42.41        1.16   779.96   0.946
  sub63                     44.83       0.00       0.00       4.59      30.86       8.42      39.27        0.89   613.84   0.876
  sub64                     44.83       0.00       0.00       2.31      36.90       4.41      41.31        0.99   628.27   0.921
  sub65                     44.83       0.00       0.00       2.00      37.75       3.83      41.57        1.14   699.39   0.927
  sub66                     44.83       0.00       0.00       5.67      30.75       7.33      38.08        1.78   890.88   0.850
  sub67                     44.83       0.00       0.00       1.09      39.99       2.50      42.49        0.79   611.97   0.948
  sub68                     44.83       0.00       0.00       2.05      37.36       4.23      41.59        1.14   798.36   0.928
  sub69                     44.83       0.00       0.00       1.81      37.99       4.92      42.91        1.59   932.69   0.957
  sub7                      44.83       0.00       0.00       1.25      39.55       2.79      42.34        0.14   105.18   0.944
  sub70                     44.83       0.00       0.00       6.03      29.42       9.21      38.63        1.12   499.85   0.862
  sub71                     44.83       0.00       0.00       1.17      39.91       2.42      42.33        1.11   681.06   0.944
  sub72                     44.83       0.00       0.00       1.04      40.29       2.10      42.39        0.58   325.82   0.946
  sub8                      44.83       0.00       0.00       1.26      39.54       2.77      42.31        0.27   191.53   0.944
  sub9                      44.83       0.00       0.00       1.27      39.54       2.77      42.31        0.20   143.17   0.944
  
  
  ******************
  Node Depth Summary
  ******************
  
  ---------------------------------------------------------------------------------
                                 Average  Maximum  Maximum  Time of Max    Reported
                                   Depth    Depth      HGL   Occurrence   Max Depth
  Node                 Type       Meters   Meters   Meters  days hr:min      Meters
  ---------------------------------------------------------------------------------
  HS02004478           JUNCTION     0.16     1.59    10.81     0  02:13        1.55
  HS02004479           JUNCTION     0.22     1.69    10.90     0  02:11        1.68
  HS02004480           JUNCTION     0.19     1.67    10.91     0  02:11        1.64
  HS02004770           JUNCTION     0.20     1.42    11.25     0  02:08        1.42
  HS02004777           JUNCTION     0.23     1.48    11.28     0  02:08        1.44
  HS02004785           JUNCTION     0.13     1.49    11.39     0  02:08        1.37
  HS02004788           JUNCTION     0.10     1.42    11.32     0  02:08        1.42
  HS02004792           JUNCTION     0.14     1.60    11.12     0  02:08        1.60
  HS02004799           JUNCTION     0.24     1.76    10.97     0  02:11        1.76
  HS02004802           JUNCTION     0.25     1.79    10.92     0  02:11        1.73
  HS02004807           JUNCTION     0.22     1.92    11.09     0  02:11        1.92
  HS02004817           JUNCTION     0.52     2.44    11.29     0  02:11        2.44
  HS02004824           JUNCTION     0.10     2.01    11.41     0  02:11        2.01
  HS02004830           JUNCTION     0.11     2.03    11.50     0  02:11        1.97
  HS02004837           JUNCTION     0.09     1.98    11.56     0  02:11        1.87
  HS02004842           JUNCTION     0.38     2.22    11.49     0  02:11        2.15
  HS02004848           JUNCTION     0.07     2.01    11.61     0  02:11        1.91
  HS02004852           JUNCTION     0.07     2.12    11.63     0  02:11        2.04
  HS02004856           JUNCTION     0.13     2.07    11.50     0  02:11        2.05
  HS02004862           JUNCTION     0.09     2.00    11.38     0  02:11        1.99
  HS02004870           JUNCTION     0.08     2.07    11.36     0  02:11        1.93
  HS02004876           JUNCTION     0.12     2.11    11.14     0  02:11        2.04
  HS02004881           JUNCTION     0.07     2.15    11.18     0  02:11        2.15
  HS02004901           JUNCTION     0.21     1.42    11.24     0  02:08        1.42
  WS02001211           JUNCTION     0.62     0.81     5.64     0  02:17        0.81
  WS02001212           JUNCTION     0.37     0.57     5.63     0  02:17        0.57
  WS02001213           JUNCTION     0.59     0.86     5.62     0  02:17        0.86
  WS02003059           JUNCTION     0.65     0.93     5.62     0  02:17        0.93
  WS02003060           JUNCTION     0.38     0.68     5.61     0  02:16        0.68
  WS02003066           JUNCTION     0.24     0.45     6.00     0  02:13        0.45
  WS02003067           JUNCTION     0.57     0.89     6.21     0  02:13        0.88
  WS02003069           JUNCTION     0.43     0.77     5.35     0  02:16        0.77
  WS02003072           JUNCTION     0.49     0.81     5.18     0  02:17        0.81
  WS02003073           JUNCTION     0.29     0.51     4.57     0  02:17        0.51
  WS02004138           JUNCTION     0.13     0.14     7.39     0  00:32        0.14
  WS02004139           JUNCTION     0.56     0.74     5.65     0  02:16        0.74
  WS02004401           JUNCTION     0.76     1.88     7.88     0  02:38        1.82
  WS02004402           JUNCTION     0.78     1.83     7.79     0  02:38        1.78
  WS02004403           JUNCTION     0.79     1.74     7.67     0  02:38        1.68
  WS02004404           JUNCTION     0.86     1.74     7.59     0  02:38        1.70
  WS02004405           JUNCTION     0.85     1.67     7.52     0  02:13        1.67
  WS02004406           JUNCTION     0.84     1.56     7.39     0  02:13        1.56
  WS02004407           JUNCTION     0.26     0.89     7.21     0  02:13        0.89
  WS02004409           JUNCTION     0.54     1.36     7.13     0  02:13        1.36
  WS02004410           JUNCTION     0.55     1.30     7.02     0  02:13        1.30
  WS02004411           JUNCTION     0.56     1.19     6.87     0  02:13        1.18
  WS02004412           JUNCTION     0.56     1.10     6.74     0  02:13        1.09
  WS02004413           JUNCTION     0.70     1.14     6.61     0  02:13        1.14
  WS02006109           JUNCTION     0.93     2.64     9.26     0  02:08        2.64
  WS02006110           JUNCTION     0.88     2.41     8.99     0  02:13        2.39
  WS02006111           JUNCTION     0.36     1.81     8.52     0  02:13        1.81
  WS02006112           JUNCTION     0.96     2.55     8.43     0  02:13        2.55
  WS02006113           JUNCTION     0.46     1.89     8.79     0  02:13        1.89
  WS02006115           JUNCTION     0.67     2.04     8.18     0  02:13        2.04
  WS02006116           JUNCTION     0.74     1.98     8.02     0  02:13        1.98
  WS02006228           JUNCTION     0.97     3.03     9.68     0  02:11        3.02
  WS02006229           JUNCTION     0.96     3.23     9.92     0  02:11        3.19
  WS02006230           JUNCTION     0.92     2.65     9.39     0  02:06        2.65
  WS02006231           JUNCTION     0.66     2.20     9.32     0  02:27        2.20
  WS02006232           JUNCTION     0.78     2.18     9.22     0  02:05        2.18
  WS02006234           JUNCTION     0.68     1.96     9.12     0  02:00        1.96
  WS02006235           JUNCTION     0.70     2.00     9.16     0  02:00        2.00
  WS02006238           JUNCTION     0.73     2.06     9.20     0  02:02        2.06
  WS02006239           JUNCTION     0.68     1.91     9.11     0  02:02        1.91
  WS02006240           JUNCTION     0.64     1.91     9.20     0  03:26        1.74
  WS02006242           JUNCTION     0.69     1.55     8.82     0  01:54        1.55
  WS02006243           JUNCTION     0.59     1.48     8.90     0  01:55        1.48
  WS02006245           JUNCTION     0.58     1.56     9.05     0  01:55        1.51
  WS02006247           JUNCTION     0.59     1.47     8.97     0  01:55        1.42
  WS02006248           JUNCTION     0.54     1.10     8.69     0  01:55        1.10
  WS02006249           JUNCTION     0.57     1.09     8.69     0  01:55        1.09
  WS02006251           JUNCTION     0.63     2.21     9.88     0  02:11        2.21
  WS02006252           JUNCTION     0.44     1.50     9.74     0  00:00        1.50
  WS02006253           JUNCTION     0.68     3.52    11.16     0  02:11        3.52
  WS02006256           JUNCTION     1.01     2.35     9.28     0  00:00        2.35
  WS02006280           JUNCTION     0.20     1.75    10.02     0  02:13        1.73
  WS02006284           JUNCTION     0.47     1.95    10.35     0  02:13        1.93
  WS02006287           JUNCTION     0.21     1.74    10.70     0  02:13        1.71
  WSF200               JUNCTION     0.23     0.51     5.75     0  02:14        0.51
  YS02001580           JUNCTION     0.05     1.05     9.59     0  02:08        0.77
  YS02001583           JUNCTION     0.08     1.00     9.49     0  02:08        0.82
  YS02001586           JUNCTION     0.13     1.13     9.30     0  02:08        1.13
  YS02001590           JUNCTION     0.21     1.40     9.26     0  02:08        1.37
  YS02001593           JUNCTION     0.15     1.34     9.20     0  02:08        1.28
  YS02001596           JUNCTION     0.20     1.69     9.11     0  02:08        1.65
  YS02001600           JUNCTION     0.25     1.87     9.00     0  02:08        1.87
  YS02001601           JUNCTION     0.43     2.06     8.90     0  02:07        2.06
  YS02001602           JUNCTION     0.35     1.87     8.77     0  02:08        1.87
  YS02001605           JUNCTION     0.33     1.78     8.68     0  02:08        1.77
  YS02001607           JUNCTION     0.33     1.66     8.51     0  02:27        1.66
  YS02001610           JUNCTION     0.38     1.68     8.48     0  02:08        1.68
  YS02001613           JUNCTION     0.34     1.69     8.53     0  02:08        1.68
  YS02001616           JUNCTION     0.27     1.61     8.52     0  02:08        1.60
  YS02001619           JUNCTION     0.25     1.61     8.54     0  02:08        1.61
  YS02001622           JUNCTION     0.24     1.62     8.52     0  02:08        1.62
  YS02001625           JUNCTION     0.49     1.78     8.38     0  02:08        1.78
  YS02001629           JUNCTION     0.34     1.85     8.40     0  02:08        1.85
  YS02001633           JUNCTION     0.42     2.08     8.53     0  02:13        2.08
  YS02001641           JUNCTION     0.41     2.01     8.45     0  02:13        2.01
  YS02001644           JUNCTION     0.41     1.92     8.35     0  02:12        1.92
  YS02001647           JUNCTION     0.21     1.79     8.40     0  02:12        1.69
  YS02001649           JUNCTION     0.24     2.00     8.39     0  02:12        1.88
  YS02001652           JUNCTION     0.14     1.86     8.46     0  02:12        1.70
  YS02001655           JUNCTION     0.11     1.90     8.75     0  02:12        1.49
  YS02001658           JUNCTION     0.08     1.89     9.03     0  02:12        1.27
  YS02001661           JUNCTION     0.12     1.37     8.78     0  02:13        1.05
  YS02001664           JUNCTION     0.04     0.58     8.51     0  02:13        0.42
  YS02001745           JUNCTION     0.04     0.85     8.36     0  02:13        0.84
  YS02001748           JUNCTION     0.07     1.87     8.95     0  02:12        1.23
  YS02001751           JUNCTION     0.09     1.81     8.69     0  02:12        1.27
  YS02001754           JUNCTION     0.12     1.83     8.44     0  02:12        1.52
  YS02001757           JUNCTION     0.26     2.07     8.33     0  02:12        1.87
  YS02001759           JUNCTION     0.21     2.03     8.39     0  02:13        1.86
  YS02001762           JUNCTION     0.20     2.05     8.45     0  02:13        1.83
  YS02001765           JUNCTION     0.18     2.03     8.48     0  02:13        1.82
  YS02001767           JUNCTION     0.18     1.99     8.48     0  02:13        1.81
  YS02001770           JUNCTION     0.19     1.95     8.45     0  02:12        1.86
  YS02001774           JUNCTION     0.25     2.02     8.44     0  02:13        1.94
  YS02001779           JUNCTION     0.11     1.68     8.37     0  02:11        1.68
  YS02001783           JUNCTION     0.18     1.29     7.44     0  02:11        1.25
  YS02001784           JUNCTION     0.20     1.16     7.22     0  02:11        1.11
  YS02001786           JUNCTION     0.17     0.90     6.93     0  02:11        0.87
  YS02001788           JUNCTION     0.12     0.62     6.60     0  02:11        0.62
  YS02001790           JUNCTION     0.14     0.72     6.37     0  02:15        0.72
  YS02001791           JUNCTION     0.09     0.44     5.91     0  02:19        0.43
  YS02001793           JUNCTION     0.05     0.25     5.09     0  02:20        0.24
  YS02001882           JUNCTION     0.23     1.83     8.55     0  02:11        1.83
  YS02001884           JUNCTION     0.32     1.91     8.52     0  02:11        1.91
  YS02001887           JUNCTION     0.39     1.91     8.45     0  02:11        1.91
  YS02001890           JUNCTION     0.42     1.81     8.32     0  02:10        1.81
  YS02001895           JUNCTION     0.20     1.60     8.35     0  02:11        1.60
  YS02001898           JUNCTION     0.21     1.63     8.36     0  02:11        1.63
  YS02001901           JUNCTION     0.32     1.74     8.35     0  02:11        1.74
  YS02001904           JUNCTION     0.30     1.69     8.32     0  02:11        1.69
  YS02001907           JUNCTION     0.61     1.96     8.25     0  02:11        1.96
  YS02001910           JUNCTION     0.41     1.98     8.48     0  02:11        1.95
  YS02001915           JUNCTION     0.23     1.99     8.71     0  02:13        1.99
  YS02001918           JUNCTION     0.11     1.81     8.88     0  02:11        1.47
  YS02001920           JUNCTION     0.19     2.14     9.15     0  02:11        1.47
  YS02001923           JUNCTION     0.08     2.03     9.29     0  02:11        1.29
  YS02001926           JUNCTION     0.12     1.90     9.35     0  02:11        1.17
  YS02001929           JUNCTION     0.06     1.78     9.47     0  02:11        1.00
  YS02006553           JUNCTION     0.61     2.04     8.33     0  02:13        2.04
  YS02006556           JUNCTION     0.59     2.02     8.33     0  02:13        2.02
  YS02006558           JUNCTION     0.63     2.19     8.46     0  02:13        2.19
  YS02006561           JUNCTION     0.11     0.98     7.64     0  02:11        0.89
  YS02163301           JUNCTION     0.36     1.97     8.48     0  02:13        1.97
  YS02163601           JUNCTION     0.46     2.08     8.48     0  02:13        2.08
  YS02164001           JUNCTION     0.39     1.99     8.45     0  02:13        1.99
  YSB1154              JUNCTION     0.35     2.10    11.16     0  02:13        2.10
  YSB1171              JUNCTION     0.50     1.95    10.85     0  02:11        1.95
  YSB1174              JUNCTION     0.31     1.95    11.06     0  02:13        1.95
  YSB6556              JUNCTION     0.25     1.80    10.97     0  02:13        1.80
  CC-1                 OUTFALL      0.00     0.00     0.00     0  00:00        0.00
  CC-2                 OUTFALL      0.00     0.00     0.00     0  00:00        0.00
  JK-1                 OUTFALL      0.00     0.00     0.00     0  00:00        0.00
  JK-2                 OUTFALL      0.00     0.00     0.00     0  00:00        0.00
  WSC                  OUTFALL      0.29     0.51     1.18     0  02:18        0.51
  CC-storage           STORAGE      0.77     1.53     7.03     0  02:33        1.53
  JK-storage           STORAGE      1.32     4.21     5.01     0  02:30        4.20
  XR-storage           STORAGE      7.92     9.26     7.26     0  08:00        9.26
  
  
  *******************
  Node Inflow Summary
  *******************
  
  -------------------------------------------------------------------------------------------------
                                  Maximum  Maximum                  Lateral       Total        Flow
                                  Lateral    Total  Time of Max      Inflow      Inflow     Balance
                                   Inflow   Inflow   Occurrence      Volume      Volume       Error
  Node                 Type           LPS      LPS  days hr:min    10^6 ltr    10^6 ltr     Percent
  -------------------------------------------------------------------------------------------------
  HS02004478           JUNCTION      0.00  2279.62     0  02:13           0        6.73      -0.009
  HS02004479           JUNCTION      0.00   488.29     0  02:11           0       0.662       0.164
  HS02004480           JUNCTION      0.00  2137.19     0  02:09           0         5.1       0.059
  HS02004770           JUNCTION   1175.05  1175.05     0  02:14         1.8        2.01       0.155
  HS02004777           JUNCTION      0.03   765.50     0  02:08    0.000864        1.53       0.341
  HS02004785           JUNCTION      0.15   781.83     0  02:08     0.00432        1.53       0.010
  HS02004788           JUNCTION    428.73   861.22     0  02:08       0.716        2.24      -0.029
  HS02004792           JUNCTION   1409.66  2155.52     0  02:14        2.31        4.55       0.017
  HS02004799           JUNCTION    281.70  1761.51     0  02:09       0.403        4.47       0.060
  HS02004802           JUNCTION      0.00   930.85     0  02:13           0        1.67       0.242
  HS02004807           JUNCTION    353.65   924.94     0  02:14       0.493        1.72       0.245
  HS02004817           JUNCTION      0.60   576.92     0  02:14      0.0173        1.28       1.297
  HS02004824           JUNCTION    440.58   670.51     0  02:09        0.87        1.42       0.059
  HS02004830           JUNCTION      0.15   666.30     0  02:09     0.00432       0.703       0.180
  HS02004837           JUNCTION    324.72   890.00     0  02:09       0.651       0.994       0.075
  HS02004842           JUNCTION      0.00   877.70     0  02:09           0       0.639       2.065
  HS02004848           JUNCTION    395.40  1113.64     0  02:10       0.814         1.3      -0.008
  HS02004852           JUNCTION      0.00  1089.80     0  02:11           0        1.17      -0.014
  HS02004856           JUNCTION    143.17  1211.86     0  02:11       0.204        1.37       0.014
  HS02004862           JUNCTION    184.35  1255.74     0  02:11       0.349        1.72      -0.051
  HS02004870           JUNCTION    191.53  1353.09     0  02:11        0.27        1.99       0.003
  HS02004876           JUNCTION    186.23  1365.18     0  02:11       0.279        2.27       0.018
  HS02004881           JUNCTION    105.18  1456.76     0  02:11       0.143        2.41       0.015
  HS02004901           JUNCTION    287.75   513.94     0  02:15       0.406       0.588       0.307
  WS02001211           JUNCTION      7.35   204.06     0  03:13       0.212        5.44       0.611
  WS02001212           JUNCTION      0.00   209.36     0  02:44           0        5.41       0.290
  WS02001213           JUNCTION      0.00   214.16     0  02:42           0        5.39       0.334
  WS02003059           JUNCTION      0.00   218.49     0  02:42           0        5.38       0.598
  WS02003060           JUNCTION     16.53  1481.34     0  02:16       0.476        15.1       0.099
  WS02003066           JUNCTION      0.00  1281.15     0  02:14           0        9.29       0.018
  WS02003067           JUNCTION      0.00  1280.51     0  02:14           0        9.29       0.048
  WS02003069           JUNCTION      0.32  1481.44     0  02:16     0.00922        15.1       0.104
  WS02003072           JUNCTION      0.00  1481.37     0  02:17           0        15.1       0.140
  WS02003073           JUNCTION      1.82  1483.26     0  02:17      0.0524        15.1       0.146
  WS02004138           JUNCTION      0.00   380.00     0  00:00           0        5.25       0.053
  WS02004139           JUNCTION      0.32   190.32     0  00:32     0.00924        5.26       0.509
  WS02004401           JUNCTION      0.00  1288.91     0  02:13           0         9.4       0.116
  WS02004402           JUNCTION      0.00  1290.55     0  02:13           0        9.39       0.116
  WS02004403           JUNCTION      0.00  1291.79     0  02:13           0        9.38       0.113
  WS02004404           JUNCTION      0.16  1291.92     0  02:13     0.00467        9.37       0.097
  WS02004405           JUNCTION      0.04  1292.94     0  02:13      0.0011        9.36       0.132
  WS02004406           JUNCTION      0.00  1295.30     0  02:13           0        9.35       0.232
  WS02004407           JUNCTION      0.00  1296.44     0  02:13           0        9.33       0.018
  WS02004409           JUNCTION      0.00  1280.41     0  02:14           0        9.33       0.037
  WS02004410           JUNCTION      0.00  1280.62     0  02:14           0        9.32       0.056
  WS02004411           JUNCTION      0.00  1280.40     0  02:14           0        9.32       0.069
  WS02004412           JUNCTION      0.00  1280.30     0  02:14           0        9.31       0.090
  WS02004413           JUNCTION      0.00  1280.38     0  02:14           0         9.3       0.155
  WS02006109           JUNCTION      1.23  1280.02     0  02:13      0.0354        9.25       0.111
  WS02006110           JUNCTION      0.00  1122.84     0  02:25           0        9.11       0.087
  WS02006111           JUNCTION      0.00  1123.17     0  02:25           0         9.1       0.005
  WS02006112           JUNCTION    233.33  1282.77     0  02:13       0.333        9.43       0.222
  WS02006113           JUNCTION      0.00  1122.80     0  02:25           0         9.1       0.028
  WS02006115           JUNCTION      0.00  1282.84     0  02:13           0        9.41       0.082
  WS02006116           JUNCTION      0.00  1286.49     0  02:13           0         9.4       0.041
  WS02006228           JUNCTION      0.00  1277.83     0  02:13           0        9.22       0.041
  WS02006229           JUNCTION      0.00  2284.07     0  02:13           0        10.8       0.073
  WS02006230           JUNCTION     10.28  1019.05     0  02:13       0.296        5.77       0.147
  WS02006231           JUNCTION      0.00   562.55     0  04:00           0        4.86      -0.070
  WS02006232           JUNCTION      0.00   561.79     0  04:00           0        4.86       0.127
  WS02006234           JUNCTION      0.00   558.04     0  04:00           0        4.85      -0.188
  WS02006235           JUNCTION      0.00   550.55     0  04:00           0        4.89       0.179
  WS02006238           JUNCTION      0.00   432.40     0  03:55           0        4.58      -0.132
  WS02006239           JUNCTION      0.00   432.88     0  03:55           0        4.53      -0.169
  WS02006240           JUNCTION      0.00   431.15     0  03:55           0        4.51      -0.012
  WS02006242           JUNCTION      0.00   430.32     0  03:55           0        4.51      -0.001
  WS02006243           JUNCTION      0.00   430.33     0  03:55           0        4.24      -0.230
  WS02006245           JUNCTION      0.00   431.47     0  03:55           0        4.25       0.224
  WS02006247           JUNCTION      0.00   431.98     0  03:55           0        4.25      -0.030
  WS02006248           JUNCTION      0.00   430.60     0  03:55           0        4.45      -0.037
  WS02006249           JUNCTION      0.00  1338.84     0  02:13           0        6.92       0.102
  WS02006251           JUNCTION      0.08  1484.72     0  02:11     0.00222        7.02      -0.008
  WS02006252           JUNCTION      0.00   547.07     0  02:11           0        4.75      -0.299
  WS02006253           JUNCTION     28.16  1483.24     0  02:11      0.0345        2.52       0.006
  WS02006256           JUNCTION      0.00   300.00     0  00:00           0        0.93      -2.732
  WS02006280           JUNCTION      0.00  2282.91     0  02:13           0        6.72       0.011
  WS02006284           JUNCTION      0.10  2281.63     0  02:13     0.00275        6.72       0.006
  WS02006287           JUNCTION      0.00  2281.30     0  02:13           0        6.72       0.015
  WSF200               JUNCTION      0.00  1281.42     0  02:14           0        9.28       0.009
  YS02001580           JUNCTION      0.00   115.12     0  02:08           0     0.00412      -3.442
  YS02001583           JUNCTION      0.00   178.55     0  02:08           0       0.015      -4.816
  YS02001586           JUNCTION    499.85   499.85     0  02:15        1.12        1.13       0.123
  YS02001590           JUNCTION      0.00   318.39     0  02:13           0        1.01      -0.032
  YS02001593           JUNCTION      0.00   318.04     0  02:13           0        1.01       0.017
  YS02001596           JUNCTION      0.00   317.98     0  02:17           0        1.01       0.002
  YS02001600           JUNCTION      0.00   317.99     0  02:23           0        1.01       0.013
  YS02001601           JUNCTION    932.69  1250.14     0  02:14        1.59         2.6       0.034
  YS02001602           JUNCTION      0.00   524.08     0  02:07           0        1.84       0.026
  YS02001605           JUNCTION      0.00   524.11     0  02:07           0        1.77       0.028
  YS02001607           JUNCTION      0.00   524.11     0  02:07           0        1.77       0.113
  YS02001610           JUNCTION      0.00   524.39     0  02:07           0        1.78       0.127
  YS02001613           JUNCTION      0.00   525.88     0  02:07           0        1.53       0.098
  YS02001616           JUNCTION      0.00   528.55     0  02:07           0        1.53       0.027
  YS02001619           JUNCTION    890.88   932.42     0  02:08        1.78         3.3      -0.006
  YS02001622           JUNCTION      0.00   945.91     0  02:08           0        3.29      -0.002
  YS02001625           JUNCTION      0.00  1003.36     0  02:16           0        3.31       0.270
  YS02001629           JUNCTION      0.00   953.94     0  02:08           0        2.83       0.021
  YS02001633           JUNCTION    699.59  1371.38     0  02:10        1.15        3.93       0.090
  YS02001641           JUNCTION      0.00  1370.92     0  02:10           0         3.9       0.075
  YS02001644           JUNCTION    628.31  1786.13     0  02:10       0.993        4.89       0.071
  YS02001647           JUNCTION      0.00  1786.92     0  02:10           0        4.82       0.006
  YS02001649           JUNCTION      0.00  2051.03     0  02:09           0        5.72       0.004
  YS02001652           JUNCTION      0.00   756.34     0  02:14           0       0.896      -0.109
  YS02001655           JUNCTION      0.15   755.39     0  02:14     0.00443       0.896       0.062
  YS02001658           JUNCTION      0.00   753.88     0  02:14           0       0.892      -0.044
  YS02001661           JUNCTION      0.00   777.99     0  02:13           0       0.892      -0.004
  YS02001664           JUNCTION    613.84   613.84     0  02:14       0.892       0.892      -0.008
  YS02001745           JUNCTION    400.87   507.92     0  02:12       0.551       0.552       0.270
  YS02001748           JUNCTION      0.04   633.38     0  02:12      0.0013       0.553      -0.335
  YS02001751           JUNCTION      0.01   509.30     0  02:13    0.000317        0.56       0.198
  YS02001754           JUNCTION      0.26   509.71     0  02:13     0.00749       0.573      -0.209
  YS02001757           JUNCTION      0.00  3307.16     0  02:13           0        8.21       0.044
  YS02001759           JUNCTION    555.07  1289.21     0  02:12       0.758        1.93       0.006
  YS02001762           JUNCTION      0.00   753.64     0  02:15           0        1.17       0.016
  YS02001765           JUNCTION      0.00   753.20     0  02:12           0        1.17       0.027
  YS02001767           JUNCTION      0.54   756.60     0  02:13      0.0154        1.17       0.013
  YS02001770           JUNCTION    780.11   780.11     0  02:14        1.17        1.21       0.001
  YS02001774           JUNCTION      0.00   385.39     0  02:11           0      0.0689       1.744
  YS02001779           JUNCTION      0.01   390.50     0  02:11    0.000144      0.0272      -1.374
  YS02001783           JUNCTION      0.00  1159.90     0  02:13           0        3.14       0.008
  YS02001784           JUNCTION      1.06  1161.51     0  02:13      0.0305        3.17       0.015
  YS02001786           JUNCTION      0.06  1162.57     0  02:13     0.00162        3.17       0.020
  YS02001788           JUNCTION      0.07  1163.39     0  02:13     0.00204        3.17       0.009
  YS02001790           JUNCTION      0.15  1172.48     0  02:11     0.00446        3.18       0.018
  YS02001791           JUNCTION      0.00  1284.35     0  02:15           0        3.18      -0.016
  YS02001793           JUNCTION      0.00  1238.46     0  02:14           0        3.18       0.007
  YS02001882           JUNCTION      0.00    56.04     0  02:09           0      0.0123       5.122
  YS02001884           JUNCTION      0.00    75.03     0  02:09           0      0.0479       5.347
  YS02001887           JUNCTION    612.42   619.90     0  02:13       0.803       0.837       0.550
  YS02001890           JUNCTION      0.00   623.39     0  02:13           0       0.796       0.644
  YS02001895           JUNCTION      0.00   514.81     0  02:15           0        0.77       0.160
  YS02001898           JUNCTION      0.00   514.81     0  02:15           0       0.769       0.046
  YS02001901           JUNCTION      0.00   515.47     0  02:15           0       0.771       0.420
  YS02001904           JUNCTION      0.00   515.30     0  02:15           0       0.775       0.366
  YS02001907           JUNCTION      0.00  1553.90     0  02:12           0        2.54       0.710
  YS02001910           JUNCTION      0.00  1064.58     0  02:12           0        1.77       0.405
  YS02001915           JUNCTION    681.08  1063.93     0  02:12        1.11        1.81       0.082
  YS02001918           JUNCTION      0.00   442.21     0  02:12           0       0.737      -0.004
  YS02001920           JUNCTION      2.87   442.13     0  02:12      0.0827       0.719       0.099
  YS02001923           JUNCTION      0.04   421.17     0  02:11     0.00109        0.62      -0.151
  YS02001926           JUNCTION      0.05   687.79     0  02:11      0.0015         0.6      -0.095
  YS02001929           JUNCTION    325.82   519.27     0  02:11       0.583       0.586      -0.063
  YS02006553           JUNCTION      0.00   797.53     0  02:25           0        2.02       0.591
  YS02006556           JUNCTION      0.00   797.02     0  02:25           0        2.02       0.395
  YS02006558           JUNCTION    799.24  1158.45     0  02:12        1.17        3.17       0.112
  YS02006561           JUNCTION      0.00  1160.07     0  02:13           0        3.14       0.001
  YS02163301           JUNCTION      0.00   926.87     0  02:10           0        2.82       0.056
  YS02163601           JUNCTION      0.11  1370.59     0  02:10     0.00317         3.9       0.127
  YS02164001           JUNCTION      0.00  1370.54     0  02:10           0         3.9       0.062
  YSB1154              JUNCTION    321.84   321.84     0  02:14       0.482       0.483       0.314
  YSB1171              JUNCTION      0.00   605.30     0  02:13           0       0.855       0.771
  YSB1174              JUNCTION    287.83   287.83     0  02:13       0.366       0.366       0.367
  YSB6556              JUNCTION      0.00   321.90     0  02:14           0       0.484       0.273
  CC-1                 OUTFALL       0.00   683.00     0  00:00           0        2.68       0.000
  CC-2                 OUTFALL       0.00   683.00     0  00:00           0        1.66       0.000
  JK-1                 OUTFALL       0.00  1000.00     0  00:00           0        1.48       0.000
  JK-2                 OUTFALL       0.00  1000.00     0  00:00           0       0.894       0.000
  WSC                  OUTFALL       0.00  1483.59     0  02:18           0        15.1       0.000
  CC-storage           STORAGE       0.00  3307.52     0  02:13           0        10.4      -0.281
  JK-storage           STORAGE       0.00  1241.15     0  02:19           0        3.33      -0.501
  XR-storage           STORAGE     200.00   200.00     0  00:00        5.76        6.36       0.001
  
  
  **********************
  Node Surcharge Summary
  **********************
  
  Surcharging occurs when water rises above the top of the highest conduit.
  ---------------------------------------------------------------------
                                               Max. Height   Min. Depth
                                   Hours       Above Crown    Below Rim
  Node                 Type      Surcharged         Meters       Meters
  ---------------------------------------------------------------------
  HS02004478           JUNCTION        0.32          0.667        0.273
  HS02004479           JUNCTION        0.43          0.894        0.156
  HS02004480           JUNCTION        0.47          0.964        0.136
  HS02004770           JUNCTION        0.38          0.720        0.000
  HS02004777           JUNCTION        0.39          0.780        0.000
  HS02004785           JUNCTION        0.34          0.790        0.000
  HS02004788           JUNCTION        0.33          0.720        0.000
  HS02004792           JUNCTION        0.44          0.900        0.000
  HS02004799           JUNCTION        0.54          1.060        0.000
  HS02004802           JUNCTION        0.47          1.083        0.127
  HS02004807           JUNCTION        0.46          1.220        0.000
  HS02004817           JUNCTION        0.92          1.740        0.000
  HS02004824           JUNCTION        0.34          1.310        0.000
  HS02004830           JUNCTION        0.32          1.330        0.000
  HS02004837           JUNCTION        0.29          1.281        0.059
  HS02004842           JUNCTION        0.40          1.520        0.000
  HS02004848           JUNCTION        0.26          1.312        0.058
  HS02004852           JUNCTION        0.28          1.420        0.000
  HS02004856           JUNCTION        0.26          1.300        0.000
  HS02004862           JUNCTION        0.29          1.300        0.000
  HS02004870           JUNCTION        0.31          1.373        0.027
  HS02004876           JUNCTION        0.37          1.408        0.152
  HS02004881           JUNCTION        0.36          1.450        0.000
  HS02004901           JUNCTION        0.39          0.720        0.000
  WS02004401           JUNCTION        1.25          0.878        0.782
  WS02004402           JUNCTION        1.29          0.825        0.915
  WS02004403           JUNCTION        1.30          0.742        1.288
  WS02004404           JUNCTION        1.51          0.737        2.043
  WS02004405           JUNCTION        1.47          0.674        2.126
  WS02004406           JUNCTION        1.42          0.558        1.892
  WS02004409           JUNCTION        0.77          0.365        1.995
  WS02004410           JUNCTION        0.71          0.297        2.243
  WS02004411           JUNCTION        0.63          0.192        2.338
  WS02004412           JUNCTION        0.55          0.095        2.215
  WS02004413           JUNCTION        1.03          0.139        2.061
  WS02006109           JUNCTION        2.49          1.820        0.000
  WS02006110           JUNCTION        1.75          1.499        0.351
  WS02006111           JUNCTION        0.93          1.000        0.870
  WS02006112           JUNCTION        2.05          1.550        0.130
  WS02006113           JUNCTION        0.98          1.093        0.837
  WS02006115           JUNCTION        1.19          1.034        1.216
  WS02006116           JUNCTION        1.19          0.922        1.368
  WS02006228           JUNCTION        2.46          2.200        0.000
  WS02006229           JUNCTION        0.68          1.048        0.022
  WS02006230           JUNCTION        1.57          1.570        0.000
  WS02006231           JUNCTION        1.72          1.492        0.038
  WS02006232           JUNCTION        2.45          1.480        0.000
  WS02006234           JUNCTION        2.22          1.240        0.000
  WS02006235           JUNCTION        2.28          1.290        0.000
  WS02006238           JUNCTION        2.36          1.338        0.092
  WS02006239           JUNCTION        2.29          1.166        0.124
  WS02006240           JUNCTION        2.30          1.195        0.195
  WS02006242           JUNCTION        2.45          0.820        0.000
  WS02006243           JUNCTION        2.31          0.770        0.000
  WS02006245           JUNCTION        2.31          0.850        0.000
  WS02006247           JUNCTION        2.33          0.760        0.000
  WS02006248           JUNCTION        2.28          0.380        0.000
  WS02006249           JUNCTION        2.31          0.390        0.000
  WS02006251           JUNCTION        1.97          1.180        0.000
  WS02006252           JUNCTION        2.90          1.100        0.000
  WS02006253           JUNCTION        2.05          2.480        0.000
  WS02006256           JUNCTION        7.21          2.050        0.000
  WS02006280           JUNCTION        0.55          0.697        0.083
  WS02006284           JUNCTION        0.49          0.668        0.132
  WS02006287           JUNCTION        0.41          0.742        0.148
  YS02001580           JUNCTION        0.39          0.450        0.000
  YS02001583           JUNCTION        0.40          0.356        0.144
  YS02001586           JUNCTION        0.51          0.510        0.000
  YS02001590           JUNCTION        0.58          0.750        0.000
  YS02001593           JUNCTION        0.58          0.723        0.117
  YS02001596           JUNCTION        0.67          0.958        0.112
  YS02001600           JUNCTION        0.79          1.190        0.000
  YS02001601           JUNCTION        1.13          1.440        0.000
  YS02001602           JUNCTION        1.01          1.270        0.000
  YS02001605           JUNCTION        0.96          1.180        0.000
  YS02001607           JUNCTION        0.55          0.663        0.017
  YS02001610           JUNCTION        0.56          0.680        0.000
  YS02001613           JUNCTION        0.54          0.687        0.013
  YS02001616           JUNCTION        0.50          0.610        0.000
  YS02001619           JUNCTION        0.49          0.610        0.000
  YS02001622           JUNCTION        0.49          0.620        0.000
  YS02001625           JUNCTION        0.64          0.780        0.000
  YS02001629           JUNCTION        0.45          0.470        0.000
  YS02001633           JUNCTION        0.66          1.060        0.000
  YS02001641           JUNCTION        0.60          1.009        0.091
  YS02001644           JUNCTION        0.57          0.920        0.000
  YS02001647           JUNCTION        0.40          0.791        0.109
  YS02001649           JUNCTION        0.49          0.998        0.052
  YS02001652           JUNCTION        0.33          0.833        0.297
  YS02001655           JUNCTION        0.23          0.904        0.296
  YS02001658           JUNCTION        0.09          0.889        0.411
  YS02001661           JUNCTION        0.01          0.303        1.087
  YS02001748           JUNCTION        0.02          0.791        0.399
  YS02001751           JUNCTION        0.15          0.807        0.393
  YS02001754           JUNCTION        0.25          0.779        0.371
  YS02001757           JUNCTION        0.53          1.067        0.143
  YS02001759           JUNCTION        0.45          1.030        0.180
  YS02001762           JUNCTION        0.43          1.047        0.103
  YS02001765           JUNCTION        0.39          1.025        0.075
  YS02001767           JUNCTION        0.36          0.992        0.038
  YS02001770           JUNCTION        0.35          0.920        0.000
  YS02001774           JUNCTION        0.41          1.018        0.032
  YS02001779           JUNCTION        0.26          0.680        0.000
  YS02001783           JUNCTION        0.38          0.495        1.105
  YS02001784           JUNCTION        0.36          0.355        1.135
  YS02001786           JUNCTION        0.27          0.100        1.330
  YS02001882           JUNCTION        0.34          0.830        0.000
  YS02001884           JUNCTION        0.35          0.845        0.025
  YS02001887           JUNCTION        0.38          0.861        0.089
  YS02001890           JUNCTION        0.39          0.760        0.000
  YS02001895           JUNCTION        0.33          0.599        0.151
  YS02001898           JUNCTION        0.32          0.595        0.145
  YS02001901           JUNCTION        0.37          0.742        0.128
  YS02001904           JUNCTION        0.36          0.690        0.160
  YS02001907           JUNCTION        0.56          0.950        0.000
  YS02001910           JUNCTION        0.41          0.978        0.122
  YS02001915           JUNCTION        0.34          0.993        0.007
  YS02001918           JUNCTION        0.26          0.810        0.000
  YS02001920           JUNCTION        0.28          1.140        0.000
  YS02001923           JUNCTION        0.01          0.820        0.000
  YS02001926           JUNCTION        0.01          0.900        0.000
  YS02001929           JUNCTION        0.01          0.780        0.000
  YS02006553           JUNCTION        0.58          1.043        0.147
  YS02006556           JUNCTION        0.49          0.978        0.372
  YS02006558           JUNCTION        0.48          1.089        0.311
  YS02006561           JUNCTION        0.23          0.181        0.969
  YS02163301           JUNCTION        0.64          0.966        0.064
  YS02163601           JUNCTION        0.69          1.080        0.000
  YS02164001           JUNCTION        0.61          0.987        0.113
  YSB1154              JUNCTION        0.63          1.400        0.000
  YSB1171              JUNCTION        0.63          1.100        0.000
  YSB1174              JUNCTION        0.57          1.250        0.000
  YSB6556              JUNCTION        0.52          1.100        0.000
  
  
  *********************
  Node Flooding Summary
  *********************
  
  Flooding refers to all water that overflows a node, whether it ponds or not.
  --------------------------------------------------------------------------
                                                             Total   Maximum
                                 Maximum   Time of Max       Flood    Ponded
                        Hours       Rate    Occurrence      Volume     Depth
  Node                 Flooded       LPS   days hr:min    10^6 ltr    Meters
  --------------------------------------------------------------------------
  HS02004770              0.23    643.16      0  02:13       0.298     0.000
  HS02004777              0.01     59.56      0  02:08       0.000     0.000
  HS02004785              0.01    198.71      0  02:08       0.001     0.000
  HS02004788              0.01    220.43      0  02:08       0.001     0.000
  HS02004792              0.23   1012.93      0  02:14       0.483     0.000
  HS02004799              0.09    161.85      0  02:13       0.025     0.000
  HS02004807              0.01     32.89      0  02:11       0.000     0.000
  HS02004817              0.01     14.56      0  02:11       0.000     0.000
  HS02004824              0.01     18.36      0  02:11       0.000     0.000
  HS02004830              0.01     11.02      0  02:11       0.000     0.000
  HS02004842              0.01    107.41      0  02:11       0.001     0.000
  HS02004852              0.01    143.61      0  02:11       0.000     0.000
  HS02004856              0.01    344.41      0  02:11       0.002     0.000
  HS02004862              0.01    322.95      0  02:11       0.001     0.000
  HS02004881              0.01     74.64      0  02:11       0.000     0.000
  HS02004901              0.29    513.92      0  02:14       0.378     0.000
  WS02006109              0.27    238.12      0  02:13       0.134     0.000
  WS02006228              0.01      0.84      0  02:11       0.000     0.000
  WS02006230              0.50    566.36      0  02:13       0.630     0.000
  WS02006232              0.13      0.73      0  02:25       0.000     0.000
  WS02006234              0.54    129.02      0  02:13       0.162     0.000
  WS02006235              0.01     30.70      0  02:38       0.000     0.000
  WS02006242              0.64    137.66      0  02:31       0.260     0.000
  WS02006243              0.01    198.77      0  01:55       0.001     0.000
  WS02006245              0.01     88.14      0  01:55       0.000     0.000
  WS02006247              0.01    185.16      0  01:55       0.000     0.000
  WS02006248              0.95    339.98      0  02:07       0.922     0.000
  WS02006249              1.71   1277.70      0  02:13       3.186     0.000
  WS02006251              0.01     64.99      0  02:11       0.000     0.000
  WS02006252              0.31    545.58      0  02:11       0.275     0.000
  WS02006253              0.01     86.34      0  02:11       0.000     0.000
  WS02006256              0.85    294.43      0  02:30       0.489     0.000
  YS02001580              0.01     97.51      0  02:08       0.000     0.000
  YS02001586              0.29    182.50      0  02:15       0.106     0.000
  YS02001590              0.01      5.05      0  02:08       0.000     0.000
  YS02001600              0.01      2.11      0  02:08       0.000     0.000
  YS02001601              0.45    852.25      0  02:14       0.755     0.000
  YS02001602              0.37     62.00      0  02:13       0.071     0.000
  YS02001605              0.01      7.61      0  02:08       0.000     0.000
  YS02001610              0.31    382.20      0  02:16       0.253     0.000
  YS02001616              0.01     12.28      0  02:08       0.000     0.000
  YS02001619              0.01     64.23      0  02:08       0.000     0.000
  YS02001622              0.01     25.09      0  02:08       0.000     0.000
  YS02001625              0.28   1003.15      0  02:16       0.513     0.000
  YS02001629              0.06    118.58      0  02:13       0.015     0.000
  YS02001633              0.01      0.45      0  02:13       0.000     0.000
  YS02001644              0.07    406.72      0  02:13       0.056     0.000
  YS02001770              0.01     56.89      0  02:13       0.000     0.000
  YS02001779              0.04    335.68      0  02:11       0.011     0.000
  YS02001882              0.01      3.32      0  02:11       0.000     0.000
  YS02001890              0.08    119.47      0  02:13       0.020     0.000
  YS02001907              0.21   1177.19      0  02:13       0.513     0.000
  YS02001918              0.01    209.37      0  02:11       0.003     0.000
  YS02001920              0.01     25.93      0  02:11       0.000     0.000
  YS02001923              0.01    108.32      0  02:11       0.000     0.000
  YS02001926              0.01    257.28      0  02:11       0.002     0.000
  YS02001929              0.01     34.55      0  02:11       0.000     0.000
  YS02163601              0.01      0.84      0  02:13       0.000     0.000
  YSB1171                 0.15    573.87      0  02:14       0.193     0.000
  YSB1174                 0.01      0.48      0  02:13       0.000     0.000
  YSB6556                 0.01      0.38      0  02:13       0.000     0.000
  
  
  **********************
  Storage Volume Summary
  **********************
  
  --------------------------------------------------------------------------------------------------
                         Average     Avg  Evap Exfil       Maximum     Max    Time of Max    Maximum
                          Volume    Pcnt  Pcnt  Pcnt        Volume    Pcnt     Occurrence    Outflow
  Storage Unit           1000 m3    Full  Loss  Loss       1000 m3    Full    days hr:min        LPS
  --------------------------------------------------------------------------------------------------
  CC-storage               2.149      34     0     0         4.265      67       0  02:33    1783.53
  JK-storage               0.066      23     0     0         0.211      73       0  02:30    2300.00
  XR-storage               0.951      66     0     0         1.111      77       0  08:00     380.00
  
  
  ***********************
  Outfall Loading Summary
  ***********************
  
  -----------------------------------------------------------
                         Flow       Avg       Max       Total
                         Freq      Flow      Flow      Volume
  Outfall Node           Pcnt       LPS       LPS    10^6 ltr
  -----------------------------------------------------------
  CC-1                  15.24    683.00    683.00       2.675
  CC-2                   9.21    683.00    683.00       1.664
  JK-1                   5.70   1000.00   1000.00       1.477
  JK-2                   3.20   1000.00   1000.00       0.894
  WSC                   99.96    594.46   1483.59      15.089
  -----------------------------------------------------------
  System                26.66   3960.46   4846.23      21.800
  
  
  ********************
  Link Flow Summary
  ********************
  
  -----------------------------------------------------------------------------
                                 Maximum  Time of Max   Maximum    Max/    Max/
                                  |Flow|   Occurrence   |Veloc|    Full    Full
  Link                 Type          LPS  days hr:min     m/sec    Flow   Depth
  -----------------------------------------------------------------------------
  1                    CONDUIT   1483.59     0  02:18      3.69    0.52    0.51
  HS02004478WS02006287 CONDUIT   2281.30     0  02:13      2.61    0.64    1.00
  HS02004479HS02004480 CONDUIT    489.72     0  02:11      0.70    0.47    1.00
  HS02004480HS02004478 CONDUIT   2130.86     0  02:09      3.04    8.97    1.00
  HS02004770HS02004777 CONDUIT    765.47     0  02:08      1.09    1.40    1.00
  HS02004777HS02004785 CONDUIT    781.68     0  02:08      1.15    0.96    1.00
  HS02004785HS02004788 CONDUIT    638.14     0  02:08      1.35    4.81    1.00
  HS02004788HS02004792 CONDUIT    808.79     0  02:25      1.44    0.54    1.00
  HS02004792HS02004799 CONDUIT   1583.89     0  02:09      2.26    0.97    1.00
  HS02004799HS02004480 CONDUIT   1759.69     0  02:09      2.51    2.22    1.00
  HS02004802HS02004478 CONDUIT    934.30     0  02:13      1.33    0.82    1.00
  HS02004807HS02004802 CONDUIT    930.85     0  02:13      1.33    1.78    1.00
  HS02004817HS02004807 CONDUIT    577.09     0  02:14      0.82    0.34    1.00
  HS02004817HS02004824 CONDUIT    576.32     0  02:14      0.82    0.26    1.00
  HS02004824HS02004830 CONDUIT    666.15     0  02:09      0.95    0.87    1.00
  HS02004830HS02004837 CONDUIT    690.54     0  02:09      1.08    0.69    1.00
  HS02004837HS02004842 CONDUIT    877.70     0  02:09      1.25    0.52    1.00
  HS02004842HS02004848 CONDUIT    877.22     0  02:09      1.39    0.51    1.00
  HS02004848HS02004852 CONDUIT   1089.80     0  02:11      1.64    1.23    1.00
  HS02004852HS02004856 CONDUIT   1101.63     0  02:11      1.57    1.26    1.00
  HS02004856HS02004862 CONDUIT   1120.67     0  02:11      1.71    1.12    1.00
  HS02004862HS02004870 CONDUIT   1204.62     0  02:11      1.85    1.30    1.00
  HS02004870HS02004876 CONDUIT   1212.28     0  02:11      1.73    0.80    1.00
  HS02004876HS02004881 CONDUIT   1367.50     0  02:11      2.11   14.54    1.00
  HS02004881HS02006253 CONDUIT   1458.81     0  02:11      2.41    0.29    1.00
  HS02004901HS02004770 CONDUIT    265.50     0  02:22      0.38    1.00    1.00
  WS02001211WS02001212 CONDUIT    209.36     0  02:44      0.54    0.16    0.69
  WS02001212WS02001213 CONDUIT    214.16     0  02:42      1.04    0.33    0.55
  WS02001213WS02003059 CONDUIT    218.49     0  02:42      0.47    0.36    0.89
  WS02003059WS02003060 CONDUIT    224.57     0  02:42      0.66    0.15    0.80
  WS02003060WS02003069 CONDUIT   1481.12     0  02:16      2.08    0.58    0.60
  WS02003066WSF200     CONDUIT   1281.42     0  02:14      3.25    0.22    0.38
  WS02003067WS02003066 CONDUIT   1281.15     0  02:14      1.98    0.41    0.56
  WS02003069WS02003072 CONDUIT   1481.37     0  02:17      1.88    0.71    0.66
  WS02003072WS02003073 CONDUIT   1481.44     0  02:17      2.04    3.20    0.61
  WS02004138WS02004139 CONDUIT    190.00     0  00:32      2.17    0.04    0.41
  WS02004139WS02001211 CONDUIT    196.72     0  03:13      0.54    0.25    0.60
  WS02004401WS02004402 CONDUIT   1290.55     0  02:13      1.64    1.55    1.00
  WS02004402WS02004403 CONDUIT   1291.79     0  02:13      1.64    1.86    1.00
  WS02004403WS02004404 CONDUIT   1291.76     0  02:13      1.64    0.93    1.00
  WS02004404WS02004405 CONDUIT   1292.90     0  02:13      1.65   12.67    1.00
  WS02004405WS02004406 CONDUIT   1295.30     0  02:13      1.65    2.56    1.00
  WS02004406WS02004407 CONDUIT   1296.44     0  02:13      1.73    0.58    0.95
  WS02004407WS02004409 CONDUIT   1280.41     0  02:14      1.88    0.45    0.95
  WS02004409WS02004410 CONDUIT   1280.62     0  02:14      1.63    1.66    1.00
  WS02004410WS02004411 CONDUIT   1280.40     0  02:14      1.63    1.75    1.00
  WS02004411WS02004412 CONDUIT   1280.30     0  02:14      1.63    1.82    1.00
  WS02004412WS02004413 CONDUIT   1280.38     0  02:14      1.63    0.86    1.00
  WS02004413WS02003067 CONDUIT   1280.51     0  02:14      1.99    0.55    0.76
  WS02006109WS02006110 CONDUIT   1122.84     0  02:25      2.23    2.16    1.00
  WS02006110WS02006113 CONDUIT   1122.80     0  02:25      2.23    1.02    1.00
  WS02006111WS02006112 CONDUIT   1123.20     0  02:25      2.23    0.53    1.00
  WS02006112WS02006115 CONDUIT   1282.84     0  02:13      1.63    0.76    1.00
  WS02006113WS02006111 CONDUIT   1123.17     0  02:25      2.67    1.35    1.00
  WS02006115WS02006116 CONDUIT   1286.49     0  02:13      1.64    1.65    1.00
  WS02006116WS02004401 CONDUIT   1288.91     0  02:13      1.64    1.78    1.00
  WS02006228WS02006109 CONDUIT   1278.79     0  02:13      2.54    5.59    1.00
  WS02006229WS02006228 CONDUIT   1277.83     0  02:13      2.54    4.23    1.00
  WS02006230WS02006229 CONDUIT   1008.77     0  02:13      2.62   22.45    1.00
  WS02006231WS02006230 CONDUIT    566.99     0  04:05      1.50    8.60    1.00
  WS02006232WS02006231 CONDUIT    562.55     0  04:00      1.46    1.18    1.00
  WS02006234WS02006232 CONDUIT    561.79     0  04:00      1.46    1.14    1.00
  WS02006235WS02006234 CONDUIT    558.04     0  04:00      1.45    5.89    1.00
  WS02006238WS02006235 CONDUIT    436.90     0  03:55      1.45    0.98    1.00
  WS02006239WS02006238 CONDUIT    432.40     0  03:55      1.12    1.38    1.00
  WS02006240WS02006239 CONDUIT    432.88     0  03:55      1.26    1.36    1.00
  WS02006242WS02006240 CONDUIT    431.15     0  03:55      1.14    1.71    1.00
  WS02006243WS02006242 CONDUIT    430.32     0  03:55      1.34    0.92    1.00
  WS02006245WS02006243 CONDUIT    430.33     0  03:55      1.39    1.27    1.00
  WS02006247WS02006245 CONDUIT    431.47     0  03:55      1.37    3.42    1.00
  WS02006248WS02006247 CONDUIT    431.98     0  03:55      1.38    0.94    1.00
  WS02006249WS02006248 CONDUIT    430.60     0  03:55      1.38    2.36    1.00
  WS02006251WS02006249 CONDUIT   1338.84     0  02:13      3.48    3.86    1.00
  WS02006252WS02006251 CONDUIT    409.97     0  02:06     23.23    1.50    1.00
  WS02006253WS02006251 CONDUIT   1484.64     0  02:11      3.86    4.45    1.00
  WS02006256WS02006235 CONDUIT    288.93     0  00:00      4.23    3.06    1.00
  WS02006280WS02006229 CONDUIT   2284.07     0  02:13      4.16    0.49    1.00
  WS02006284WS02006280 CONDUIT   2282.91     0  02:13      2.97    0.96    1.00
  WS02006287WS02006284 CONDUIT   2281.54     0  02:13      2.90    1.06    1.00
  WSF200WS02003060     CONDUIT   1282.10     0  02:14      2.34    0.28    0.50
  YS02001580YS02001583 CONDUIT    115.12     0  02:08      0.70    0.45    1.00
  YS02001583YS02001586 CONDUIT    170.37     0  02:08      0.72    0.26    1.00
  YS02001586YS02001590 CONDUIT    318.39     0  02:13      1.26    0.56    1.00
  YS02001590YS02001593 CONDUIT    318.04     0  02:13      1.12    2.00    1.00
  YS02001593YS02001596 CONDUIT    317.98     0  02:17      1.73    0.50    1.00
  YS02001596YS02001600 CONDUIT    317.99     0  02:23      1.22    0.62    1.00
  YS02001600YS02001601 CONDUIT    317.90     0  02:13      1.12    0.55    1.00
  YS02001601YS02001602 CONDUIT    524.08     0  02:07      1.85    1.89    1.00
  YS02001602YS02001605 CONDUIT    524.11     0  02:07      1.85   11.09    1.00
  YS02001605YS02001607 CONDUIT    524.11     0  02:07      1.85    2.87    1.00
  YS02001607YS02001610 CONDUIT    524.39     0  02:07      0.67    0.50    1.00
  YS02001610YS02001613 CONDUIT    525.88     0  02:07      0.67    0.61    1.00
  YS02001613YS02001616 CONDUIT    528.55     0  02:07      0.68    0.45    1.00
  YS02001616YS02001619 CONDUIT    516.22     0  02:08      0.67    0.90    1.00
  YS02001619YS02001622 CONDUIT    945.91     0  02:08      1.20    1.39    1.00
  YS02001622YS02001625 CONDUIT    952.72     0  02:08      1.21    0.51    1.00
  YS02001625YS02001629 CONDUIT    953.94     0  02:08      1.22    0.45    1.00
  YS02001629YS02163301 CONDUIT    926.87     0  02:10      1.18    1.14    1.00
  YS02001633YS02163601 CONDUIT   1370.48     0  02:10      1.74    1.44    1.00
  YS02001641YS02001644 CONDUIT   1372.79     0  02:10      1.75    4.44    1.00
  YS02001644YS02001647 CONDUIT   1786.92     0  02:10      2.30    1.05    1.00
  YS02001647YS02001649 CONDUIT   1801.43     0  02:10      2.34    0.95    1.00
  YS02001649YS02001757 CONDUIT   2014.94     0  02:10      2.57    1.22    1.00
  YS02001652YS02001649 CONDUIT    755.78     0  02:14      0.96    0.37    1.00
  YS02001655YS02001652 CONDUIT    756.34     0  02:14      1.33    0.37    1.00
  YS02001658YS02001655 CONDUIT    755.23     0  02:14      1.91    0.32    1.00
  YS02001661YS02001658 CONDUIT    753.88     0  02:14      2.35    0.30    1.00
  YS02001664YS02001661 CONDUIT    777.99     0  02:13      2.36    0.24    0.78
  YS02001745YS02001748 CONDUIT    633.33     0  02:12      2.22    0.24    0.92
  YS02001748YS02001751 CONDUIT    509.29     0  02:13      1.72    0.26    1.00
  YS02001751YS02001754 CONDUIT    509.45     0  02:13      1.45    0.25    1.00
  YS02001754YS02001757 CONDUIT    507.93     0  02:13      0.65    0.20    1.00
  YS02001757CaochengTiaoxuchi CONDUIT   3307.52     0  02:13      4.21    1.43    1.00
  YS02001759YS02001757 CONDUIT   1292.25     0  02:13      1.65    0.92    1.00
  YS02001762YS02001759 CONDUIT    755.22     0  02:15      0.96    0.87    1.00
  YS02001765YS02001762 CONDUIT    753.64     0  02:15      0.96    0.71    1.00
  YS02001767YS02001765 CONDUIT    753.20     0  02:12      0.96    0.95    1.00
  YS02001770YS02001767 CONDUIT    756.07     0  02:13      0.96    2.99    1.00
  YS02001774YS02001770 CONDUIT    385.39     0  02:11      0.49    0.25    1.00
  YS02001779YS02001774 CONDUIT    390.49     0  02:11      0.50    0.20    1.00
  YS02001783YS02001784 CONDUIT   1160.45     0  02:13      2.31    1.60    1.00
  YS02001784YS02001785 CONDUIT   1162.51     0  02:13      2.31    2.71    1.00
  YS02001786YS02001788 CONDUIT   1163.32     0  02:13      2.47    2.24    0.89
  YS02001788YS02001790 CONDUIT   1172.33     0  02:11      2.71    0.86    0.84
  YS02001790YS02001791 CONDUIT   1284.35     0  02:15      3.42    1.40    0.70
  YS02001791YS02001793 CONDUIT   1238.46     0  02:14      6.78    0.53    0.42
  YS02001793JiankangQianchi CONDUIT   1241.15     0  02:19      2.49    0.10    0.63
  YS02001882YS02001884 CONDUIT     56.04     0  02:09      0.09    0.06    1.00
  YS02001884YS02001887 CONDUIT     75.03     0  02:09      0.10    0.10    1.00
  YS02001887YS02001890 CONDUIT    623.39     0  02:13      0.79    1.07    1.00
  YS02001890YS02001895 CONDUIT    514.81     0  02:15      0.66    0.24    1.00
  YS02001895YS02001898 CONDUIT    514.81     0  02:15      0.66    0.89    1.00
  YS02001898YS02001901 CONDUIT    515.47     0  02:15      0.66    0.33    1.00
  YS02001901YS02001904 CONDUIT    515.30     0  02:15      0.66    0.80    1.00
  YS02001904YS02001907 CONDUIT    514.98     0  02:15      0.66    0.18    1.00
  YS02001907YS02006553 CONDUIT    797.53     0  02:25      0.89    0.94    1.00
  YS02001910YS02001907 CONDUIT   1063.91     0  02:12      1.35    0.60    1.00
  YS02001915YS02001910 CONDUIT   1064.58     0  02:12      1.36    0.53    1.00
  YS02001918YS02001915 CONDUIT    443.74     0  02:12      0.56    0.24    1.00
  YS02001920YS02001918 CONDUIT    442.21     0  02:12      0.67    0.43    1.00
  YS02001923YS02001920 CONDUIT    439.26     0  02:12      0.70    0.20    1.00
  YS02001926YS02001923 CONDUIT    405.67     0  02:12      0.97    0.58    1.00
  YS02001929YS02001926 CONDUIT    404.12     0  02:12      1.15    0.19    1.00
  YS02006553YS02006556 CONDUIT    797.02     0  02:25      1.01    0.68    1.00
  YS02006556YS02006558 CONDUIT    799.33     0  02:25      1.02    0.63    1.00
  YS02006558YS02006561 CONDUIT   1160.07     0  02:13      4.10    2.56    1.00
  YS02006561YS02001783 CONDUIT   1159.90     0  02:13      2.31    0.60    1.00
  YS02163301YS02001633 CONDUIT    927.93     0  02:10      1.18    0.87    1.00
  YS02163601YS02164001 CONDUIT   1370.54     0  02:10      1.75    1.21    1.00
  YS02164001YS02001641 CONDUIT   1370.92     0  02:10      1.75    1.87    1.00
  YSB1154YSB6556       CONDUIT    321.90     0  02:14      0.84    0.58    1.00
  YSB1171HS02004479    CONDUIT    488.29     0  02:11      0.97    0.33    1.00
  YSB1174YSB1171       CONDUIT    287.48     0  02:13      0.75    0.44    1.00
  YSB6556YSB1171       CONDUIT    322.15     0  02:14      0.84    0.33    1.00
  CC-R1                PUMP       683.00     0  00:00              1.00
  CC-R2                PUMP       683.00     0  00:00              1.00
  CC-S1                PUMP       200.00     0  00:00              1.00
  CC-S2                PUMP       200.00     0  00:00              1.00
  JK-R1                PUMP      1000.00     0  00:00              1.00
  JK-R2                PUMP      1000.00     0  00:00              1.00
  JK-S                 PUMP       300.00     0  00:00              1.00
  XR-1                 PUMP        95.00     0  00:00              1.00
  XR-2                 PUMP        95.00     0  00:00              1.00
  XR-3                 PUMP        95.00     0  00:00              1.00
  XR-4                 PUMP        95.00     0  00:00              1.00
  
  
  ***************************
  Flow Classification Summary
  ***************************
  
  -------------------------------------------------------------------------------------
                      Adjusted    ---------- Fraction of Time in Flow Class ---------- 
                       /Actual         Up    Down  Sub   Sup   Up    Down  Norm  Inlet 
  Conduit               Length    Dry  Dry   Dry   Crit  Crit  Crit  Crit  Ltd   Ctrl  
  -------------------------------------------------------------------------------------
  1                       1.00   0.00  0.00  0.00  0.00  1.00  0.00  0.00  0.47  0.00
  HS02004478WS02006287    1.00   0.13  0.00  0.00  0.65  0.22  0.00  0.00  0.62  0.00
  HS02004479HS02004480    1.00   0.03  0.00  0.00  0.97  0.00  0.00  0.00  0.12  0.00
  HS02004480HS02004478    1.00   0.12  0.00  0.00  0.59  0.00  0.00  0.29  0.00  0.00
  HS02004770HS02004777    1.00   0.00  0.11  0.00  0.89  0.00  0.00  0.00  0.03  0.00
  HS02004777HS02004785    1.00   0.00  0.00  0.00  1.00  0.00  0.00  0.00  0.13  0.00
  HS02004785HS02004788    1.00   0.00  0.00  0.00  1.00  0.00  0.00  0.00  0.00  0.00
  HS02004788HS02004792    1.00   0.00  0.00  0.00  1.00  0.00  0.00  0.00  0.92  0.00
  HS02004792HS02004799    1.00   0.00  0.00  0.00  0.99  0.01  0.00  0.00  0.89  0.00
  HS02004799HS02004480    1.00   0.00  0.03  0.00  0.87  0.00  0.10  0.00  0.00  0.00
  HS02004802HS02004478    1.00   0.12  0.00  0.00  0.88  0.00  0.00  0.00  0.03  0.00
  HS02004807HS02004802    1.00   0.11  0.00  0.00  0.88  0.00  0.00  0.01  0.00  0.00
  HS02004817HS02004807    1.00   0.00  0.11  0.00  0.89  0.00  0.00  0.00  0.01  0.00
  HS02004817HS02004824    1.00   0.00  0.00  0.00  1.00  0.00  0.00  0.00  0.85  0.00
  HS02004824HS02004830    1.00   0.00  0.00  0.00  1.00  0.00  0.00  0.00  0.01  0.00
  HS02004830HS02004837    1.00   0.00  0.00  0.00  1.00  0.00  0.00  0.00  0.91  0.00
  HS02004837HS02004842    1.00   0.00  0.00  0.00  1.00  0.00  0.00  0.00  0.11  0.00
  HS02004842HS02004848    1.00   0.00  0.11  0.00  0.89  0.00  0.00  0.00  0.58  0.00
  HS02004848HS02004852    1.00   0.11  0.00  0.00  0.89  0.00  0.00  0.00  0.70  0.00
  HS02004852HS02004856    1.00   0.11  0.01  0.00  0.88  0.00  0.00  0.00  0.70  0.00
  HS02004856HS02004862    1.00   0.00  0.14  0.00  0.86  0.00  0.00  0.00  0.75  0.00
  HS02004862HS02004870    1.00   0.00  0.00  0.00  1.00  0.00  0.00  0.00  0.04  0.00
  HS02004870HS02004876    1.00   0.00  0.00  0.00  0.99  0.01  0.00  0.00  0.88  0.00
  HS02004876HS02004881    1.00   0.02  0.00  0.00  0.82  0.17  0.00  0.00  0.00  0.00
  HS02004881HS02006253    1.00   0.01  0.05  0.00  0.66  0.01  0.00  0.27  0.38  0.00
  HS02004901HS02004770    1.00   0.11  0.00  0.00  0.89  0.00  0.00  0.00  0.00  0.00
  WS02001211WS02001212    1.00   0.00  0.02  0.00  0.98  0.00  0.00  0.00  0.00  0.00
  WS02001212WS02001213    1.00   0.02  0.00  0.00  0.64  0.00  0.34  0.00  0.00  0.00
  WS02001213WS02003059    1.00   0.00  0.00  0.00  1.00  0.00  0.00  0.00  0.00  0.00
  WS02003059WS02003060    1.00   0.00  0.00  0.00  1.00  0.00  0.00  0.00  0.03  0.00
  WS02003060WS02003069    1.00   0.00  0.00  0.00  0.96  0.04  0.00  0.00  0.42  0.00
  WS02003066WSF200        1.00   0.07  0.00  0.00  0.00  0.92  0.00  0.00  0.66  0.00
  WS02003067WS02003066    1.00   0.06  0.01  0.00  0.93  0.00  0.00  0.00  0.00  0.00
  WS02003069WS02003072    1.00   0.00  0.00  0.00  1.00  0.00  0.00  0.00  0.48  0.00
  WS02003072WS02003073    1.00   0.00  0.00  0.00  0.00  0.00  0.00  1.00  0.00  0.00
  WS02004138WS02004139    1.00   0.00  0.00  0.00  0.98  0.01  0.00  0.01  0.98  0.00
  WS02004139WS02001211    1.00   0.00  0.00  0.00  1.00  0.00  0.00  0.00  0.00  0.00
  WS02004401WS02004402    1.00   0.02  0.00  0.00  0.98  0.00  0.00  0.00  0.00  0.00
  WS02004402WS02004403    1.00   0.02  0.00  0.00  0.98  0.00  0.00  0.00  0.00  0.00
  WS02004403WS02004404    1.00   0.00  0.02  0.00  0.98  0.00  0.00  0.00  0.00  0.00
  WS02004404WS02004405    1.00   0.00  0.00  0.00  1.00  0.00  0.00  0.00  0.01  0.00
  WS02004405WS02004406    1.00   0.00  0.00  0.00  1.00  0.00  0.00  0.00  0.00  0.00
  WS02004406WS02004407    1.00   0.00  0.03  0.00  0.97  0.00  0.00  0.00  0.00  0.00
  WS02004407WS02004409    1.00   0.03  0.00  0.00  0.96  0.01  0.00  0.00  0.86  0.00
  WS02004409WS02004410    1.00   0.03  0.00  0.00  0.97  0.00  0.00  0.00  0.00  0.00
  WS02004410WS02004411    1.00   0.03  0.00  0.00  0.97  0.00  0.00  0.00  0.00  0.00
  WS02004411WS02004412    1.00   0.03  0.00  0.00  0.97  0.00  0.00  0.00  0.00  0.00
  WS02004412WS02004413    1.00   0.03  0.00  0.00  0.96  0.01  0.00  0.00  0.00  0.00
  WS02004413WS02003067    1.00   0.03  0.02  0.00  0.00  0.00  0.94  0.00  0.00  0.00
  WS02006109WS02006110    1.00   0.00  0.01  0.00  0.99  0.00  0.01  0.00  0.00  0.00
  WS02006110WS02006113    1.00   0.01  0.01  0.00  0.99  0.00  0.00  0.00  0.00  0.00
  WS02006111WS02006112    1.00   0.01  0.00  0.00  0.98  0.00  0.00  0.00  0.79  0.00
  WS02006112WS02006115    1.00   0.01  0.00  0.00  0.98  0.00  0.00  0.00  0.00  0.00
  WS02006113WS02006111    1.00   0.01  0.00  0.00  0.17  0.82  0.00  0.00  0.13  0.00
  WS02006115WS02006116    1.00   0.02  0.00  0.00  0.97  0.00  0.00  0.01  0.00  0.00
  WS02006116WS02004401    1.00   0.02  0.00  0.00  0.98  0.00  0.00  0.00  0.00  0.00
  WS02006228WS02006109    1.00   0.00  0.00  0.00  1.00  0.00  0.00  0.00  0.01  0.00
  WS02006229WS02006228    1.00   0.00  0.00  0.00  0.99  0.00  0.00  0.00  0.00  0.00
  WS02006230WS02006229    1.00   0.00  0.00  0.00  0.99  0.00  0.00  0.01  0.03  0.00
  WS02006231WS02006230    1.00   0.00  0.00  0.00  0.55  0.00  0.45  0.00  0.00  0.00
  WS02006232WS02006231    1.00   0.00  0.00  0.00  0.99  0.00  0.00  0.00  0.00  0.00
  WS02006234WS02006232    1.00   0.00  0.00  0.00  1.00  0.00  0.00  0.00  0.02  0.00
  WS02006235WS02006234    1.00   0.00  0.00  0.00  0.96  0.00  0.04  0.00  0.00  0.00
  WS02006238WS02006235    1.00   0.00  0.00  0.00  1.00  0.00  0.00  0.00  0.00  0.00
  WS02006239WS02006238    1.00   0.00  0.00  0.00  1.00  0.00  0.00  0.00  0.11  0.00
  WS02006240WS02006239    1.00   0.00  0.00  0.00  0.88  0.00  0.00  0.12  0.02  0.00
  WS02006242WS02006240    1.00   0.00  0.00  0.00  0.99  0.00  0.00  0.00  0.00  0.00
  WS02006243WS02006242    1.00   0.00  0.00  0.00  1.00  0.00  0.00  0.00  0.47  0.00
  WS02006245WS02006243    1.00   0.00  0.00  0.00  0.93  0.00  0.00  0.07  0.00  0.00
  WS02006247WS02006245    1.00   0.00  0.00  0.00  0.99  0.00  0.00  0.00  0.00  0.00
  WS02006248WS02006247    1.00   0.00  0.00  0.00  1.00  0.00  0.00  0.00  0.43  0.00
  WS02006249WS02006248    1.00   0.00  0.00  0.00  0.79  0.00  0.21  0.00  0.00  0.00
  WS02006251WS02006249    1.00   0.00  0.00  0.00  1.00  0.00  0.00  0.00  0.42  0.00
  WS02006252WS02006251    1.00   0.01  0.19  0.00  0.28  0.00  0.52  0.00  0.00  0.00
  WS02006253WS02006251    1.00   0.00  0.00  0.00  1.00  0.00  0.00  0.00  0.01  0.00
  WS02006256WS02006235    1.00   0.00  0.00  0.00  0.99  0.01  0.00  0.00  0.00  0.00
  WS02006280WS02006229    1.00   0.12  0.00  0.00  0.13  0.04  0.00  0.71  0.01  0.00
  WS02006284WS02006280    1.00   0.12  0.00  0.00  0.09  0.02  0.00  0.78  0.00  0.00
  WS02006287WS02006284    1.00   0.10  0.03  0.00  0.56  0.31  0.00  0.00  0.68  0.00
  WSF200WS02003060        1.00   0.00  0.08  0.00  0.46  0.47  0.00  0.00  0.48  0.00
  YS02001580YS02001583    1.00   0.24  0.56  0.00  0.19  0.00  0.00  0.00  0.66  0.00
  YS02001583YS02001586    1.00   0.26  0.50  0.00  0.24  0.00  0.00  0.00  0.67  0.00
  YS02001586YS02001590    1.00   0.11  0.00  0.00  0.52  0.08  0.00  0.28  0.37  0.00
  YS02001590YS02001593    1.00   0.11  0.00  0.00  0.10  0.00  0.78  0.00  0.00  0.00
  YS02001593YS02001596    1.00   0.12  0.00  0.00  0.12  0.01  0.00  0.76  0.02  0.00
  YS02001596YS02001600    1.00   0.12  0.00  0.00  0.20  0.02  0.00  0.66  0.05  0.00
  YS02001600YS02001601    1.00   0.12  0.00  0.00  0.88  0.00  0.00  0.00  0.63  0.00
  YS02001601YS02001602    1.00   0.11  0.00  0.00  0.88  0.00  0.00  0.00  0.00  0.00
  YS02001602YS02001605    1.00   0.12  0.00  0.00  0.88  0.00  0.00  0.00  0.00  0.00
  YS02001605YS02001607    1.00   0.12  0.00  0.00  0.88  0.00  0.00  0.00  0.00  0.00
  YS02001607YS02001610    1.00   0.12  0.00  0.00  0.88  0.00  0.00  0.00  0.02  0.00
  YS02001610YS02001613    1.00   0.11  0.00  0.00  0.89  0.00  0.00  0.00  0.01  0.00
  YS02001613YS02001616    1.00   0.11  0.00  0.00  0.89  0.00  0.00  0.00  0.01  0.00
  YS02001616YS02001619    1.00   0.11  0.00  0.00  0.89  0.00  0.00  0.00  0.00  0.00
  YS02001619YS02001622    1.00   0.11  0.00  0.00  0.89  0.00  0.00  0.00  0.30  0.00
  YS02001622YS02001625    1.00   0.11  0.00  0.00  0.89  0.00  0.00  0.00  0.06  0.00
  YS02001625YS02001629    1.00   0.11  0.03  0.00  0.14  0.00  0.72  0.00  0.00  0.00
  YS02001629YS02163301    1.00   0.13  0.00  0.00  0.87  0.00  0.00  0.00  0.00  0.00
  YS02001633YS02163601    1.00   0.00  0.00  0.00  1.00  0.00  0.00  0.00  0.16  0.00
  YS02001641YS02001644    1.00   0.00  0.00  0.00  1.00  0.00  0.00  0.00  0.00  0.00
  YS02001644YS02001647    1.00   0.00  0.14  0.00  0.86  0.00  0.00  0.00  0.00  0.00
  YS02001647YS02001649    1.00   0.00  0.14  0.00  0.38  0.48  0.00  0.00  0.57  0.00
  YS02001649YS02001757    1.00   0.00  0.00  0.00  0.60  0.40  0.00  0.00  0.43  0.00
  YS02001652YS02001649    1.00   0.00  0.00  0.00  0.98  0.02  0.00  0.00  0.78  0.00
  YS02001655YS02001652    1.00   0.00  0.00  0.00  0.17  0.01  0.00  0.81  0.06  0.00
  YS02001658YS02001655    1.00   0.00  0.12  0.00  0.63  0.25  0.00  0.00  0.72  0.00
  YS02001661YS02001658    1.00   0.12  0.00  0.00  0.38  0.50  0.00  0.00  0.70  0.00
  YS02001664YS02001661    1.00   0.11  0.00  0.00  0.76  0.13  0.00  0.00  0.86  0.00
  YS02001745YS02001748    1.00   0.00  0.00  0.00  0.07  0.01  0.00  0.92  0.04  0.00
  YS02001748YS02001751    1.00   0.00  0.00  0.00  0.78  0.22  0.00  0.00  0.78  0.00
  YS02001751YS02001754    1.00   0.00  0.00  0.00  0.15  0.01  0.00  0.85  0.04  0.00
  YS02001754YS02001757    1.00   0.00  0.00  0.00  1.00  0.00  0.00  0.00  0.85  0.00
  YS02001757CaochengTiaoxuchi    1.00   0.00  0.00  0.00  0.99  0.01  0.00  0.00  0.73  0.00
  YS02001759YS02001757    1.00   0.00  0.00  0.00  1.00  0.00  0.00  0.00  0.58  0.00
  YS02001762YS02001759    1.00   0.00  0.00  0.00  1.00  0.00  0.00  0.00  0.06  0.00
  YS02001765YS02001762    1.00   0.00  0.00  0.00  1.00  0.00  0.00  0.00  0.70  0.00
  YS02001767YS02001765    1.00   0.00  0.00  0.00  1.00  0.00  0.00  0.00  0.01  0.00
  YS02001770YS02001767    1.00   0.00  0.00  0.00  1.00  0.00  0.00  0.00  0.00  0.00
  YS02001774YS02001770    1.00   0.00  0.12  0.00  0.80  0.00  0.08  0.00  0.04  0.00
  YS02001779YS02001774    1.00   0.00  0.00  0.00  1.00  0.00  0.00  0.00  0.81  0.00
  YS02001783YS02001784    1.00   0.00  0.15  0.00  0.85  0.00  0.00  0.00  0.56  0.00
  YS02001784YS02001785    1.00   0.00  0.00  0.00  1.00  0.00  0.00  0.00  0.19  0.00
  YS02001786YS02001788    1.00   0.00  0.00  0.00  0.74  0.26  0.00  0.00  0.00  0.00
  YS02001788YS02001790    1.00   0.00  0.00  0.00  0.17  0.83  0.00  0.00  0.83  0.00
  YS02001790YS02001791    1.00   0.00  0.00  0.00  0.01  0.99  0.00  0.00  0.15  0.00
  YS02001791YS02001793    1.00   0.00  0.00  0.00  0.00  1.00  0.00  0.00  0.00  0.00
  YS02001793JiankangQianchi    1.00   0.00  0.00  0.00  0.97  0.03  0.00  0.00  0.99  0.00
  YS02001882YS02001884    1.00   0.13  0.01  0.00  0.87  0.00  0.00  0.00  0.00  0.00
  YS02001884YS02001887    1.00   0.08  0.03  0.00  0.89  0.00  0.00  0.00  0.00  0.00
  YS02001887YS02001890    1.00   0.00  0.00  0.00  0.97  0.00  0.03  0.00  0.00  0.00
  YS02001890YS02001895    1.00   0.00  0.13  0.00  0.87  0.00  0.00  0.00  0.00  0.00
  YS02001895YS02001898    1.00   0.13  0.00  0.00  0.85  0.00  0.01  0.00  0.00  0.00
  YS02001898YS02001901    1.00   0.13  0.00  0.00  0.86  0.00  0.00  0.00  0.01  0.00
  YS02001901YS02001904    1.00   0.13  0.00  0.00  0.87  0.00  0.00  0.00  0.00  0.00
  YS02001904YS02001907    1.00   0.00  0.13  0.00  0.87  0.00  0.00  0.00  0.00  0.00
  YS02001907YS02006553    1.00   0.00  0.02  0.00  0.98  0.00  0.00  0.00  0.00  0.00
  YS02001910YS02001907    1.00   0.00  0.00  0.00  0.97  0.00  0.00  0.02  0.12  0.00
  YS02001915YS02001910    1.00   0.00  0.00  0.00  0.98  0.02  0.00  0.00  0.18  0.00
  YS02001918YS02001915    1.00   0.00  0.00  0.00  0.98  0.02  0.00  0.00  0.78  0.00
  YS02001920YS02001918    1.00   0.00  0.00  0.00  1.00  0.00  0.00  0.00  0.00  0.00
  YS02001923YS02001920    1.00   0.00  0.00  0.00  1.00  0.00  0.00  0.00  0.94  0.00
  YS02001926YS02001923    1.00   0.00  0.09  0.00  0.04  0.00  0.87  0.00  0.00  0.00
  YS02001929YS02001926    1.00   0.00  0.11  0.00  0.89  0.00  0.00  0.00  0.84  0.00
  YS02006553YS02006556    1.00   0.01  0.00  0.00  0.99  0.00  0.00  0.00  0.03  0.00
  YS02006556YS02006558    1.00   0.00  0.00  0.00  1.00  0.00  0.00  0.00  0.00  0.00
  YS02006558YS02006561    1.00   0.15  0.00  0.00  0.04  0.81  0.00  0.00  0.19  0.00
  YS02006561YS02001783    1.00   0.15  0.00  0.00  0.07  0.79  0.00  0.00  0.70  0.00
  YS02163301YS02001633    1.00   0.00  0.13  0.00  0.87  0.00  0.00  0.00  0.00  0.00
  YS02163601YS02164001    1.00   0.00  0.09  0.00  0.91  0.00  0.00  0.00  0.00  0.00
  YS02164001YS02001641    1.00   0.00  0.09  0.00  0.91  0.00  0.00  0.00  0.06  0.00
  YSB1154YSB6556          1.00   0.11  0.00  0.00  0.89  0.00  0.00  0.00  0.02  0.00
  YSB1171HS02004479       1.00   0.03  0.00  0.00  0.93  0.01  0.00  0.03  0.11  0.00
  YSB1174YSB1171          1.00   0.06  0.04  0.00  0.90  0.00  0.00  0.00  0.00  0.00
  YSB6556YSB1171          1.00   0.03  0.08  0.00  0.89  0.00  0.00  0.00  0.00  0.00
  
  
  *************************
  Conduit Surcharge Summary
  *************************
  
  ----------------------------------------------------------------------------
                                                           Hours        Hours 
                         --------- Hours Full --------   Above Full   Capacity
  Conduit                Both Ends  Upstream  Dnstream   Normal Flow   Limited
  ----------------------------------------------------------------------------
  HS02004478WS02006287        0.32      0.32      0.47      0.01         0.01
  HS02004479HS02004480        0.47      0.47      0.49      0.01         0.01
  HS02004480HS02004478        0.42      0.47      0.42      1.40         0.42
  HS02004770HS02004777        0.38      0.38      0.39      0.08         0.05
  HS02004777HS02004785        0.34      0.34      0.39      0.01         0.01
  HS02004785HS02004788        0.33      0.34      0.33      1.11         0.32
  HS02004788HS02004792        0.33      0.33      0.44      0.01         0.01
  HS02004792HS02004799        0.44      0.44      0.54      0.01         0.01
  HS02004799HS02004480        0.47      0.47      0.54      0.61         0.01
  HS02004802HS02004478        0.42      0.42      0.48      0.01         0.01
  HS02004807HS02004802        0.46      0.46      0.47      0.14         0.14
  HS02004817HS02004807        0.46      0.46      0.92      0.01         0.01
  HS02004817HS02004824        0.34      0.34      0.92      0.01         0.01
  HS02004824HS02004830        0.32      0.32      0.34      0.01         0.01
  HS02004830HS02004837        0.29      0.29      0.32      0.01         0.01
  HS02004837HS02004842        0.28      0.28      0.40      0.01         0.01
  HS02004842HS02004848        0.26      0.26      0.40      0.01         0.01
  HS02004848HS02004852        0.26      0.26      0.28      0.02         0.01
  HS02004852HS02004856        0.27      0.28      0.30      0.02         0.01
  HS02004856HS02004862        0.26      0.26      0.29      0.01         0.01
  HS02004862HS02004870        0.29      0.29      0.31      0.03         0.03
  HS02004870HS02004876        0.31      0.31      0.37      0.01         0.01
  HS02004876HS02004881        0.36      0.37      0.36      1.15         0.35
  HS02004881HS02006253        0.36      0.36      2.05      0.01         0.01
  HS02004901HS02004770        0.38      0.38      0.39      0.01         0.01
  WS02003072WS02003073        0.01      0.01      0.01      3.54         0.01
  WS02004401WS02004402        1.25      1.25      1.29      1.07         1.05
  WS02004402WS02004403        1.29      1.29      1.30      1.25         1.24
  WS02004403WS02004404        1.30      1.30      1.51      0.01         0.01
  WS02004404WS02004405        1.46      1.51      1.46      4.44         1.46
  WS02004405WS02004406        1.42      1.46      1.42      1.88         1.42
  WS02004406WS02004407        0.01      0.01      1.42      0.01         0.01
  WS02004407WS02004409        0.01      0.01      0.77      0.01         0.01
  WS02004409WS02004410        0.71      0.77      0.71      1.19         0.71
  WS02004410WS02004411        0.63      0.71      0.63      1.22         0.63
  WS02004411WS02004412        0.55      0.63      0.55      1.25         0.55
  WS02004412WS02004413        0.55      0.55      1.03      0.01         0.01
  WS02004413WS02003067        0.01      0.01      1.03      0.01         0.01
  WS02006109WS02006110        1.75      1.75      2.69      1.76         0.01
  WS02006110WS02006113        0.98      0.98      2.60      0.25         0.01
  WS02006111WS02006112        0.93      0.93      3.27      0.01         0.01
  WS02006112WS02006115        1.19      1.19      2.05      0.01         0.01
  WS02006113WS02006111        0.95      0.98      0.95      1.06         0.95
  WS02006115WS02006116        1.19      1.19      1.19      1.19         1.16
  WS02006116WS02004401        1.25      1.25      1.25      1.23         1.21
  WS02006228WS02006109        2.49      2.69      2.49      4.01         2.49
  WS02006229WS02006228        2.46      2.54      2.46      3.32         2.45
  WS02006230WS02006229        2.87      3.15      2.88      4.30         2.00
  WS02006231WS02006230        1.57      1.57      1.83      4.03         0.73
  WS02006232WS02006231        1.71      1.71      2.45      0.11         0.11
  WS02006234WS02006232        2.26      2.27      2.45      0.08         0.11
  WS02006235WS02006234        2.21      2.22      2.27      3.88         0.72
  WS02006238WS02006235        2.31      2.31      2.45      0.01         0.24
  WS02006239WS02006238        2.35      2.40      2.36      2.20         1.09
  WS02006240WS02006239        2.28      2.32      2.29      2.13         1.02
  WS02006242WS02006240        2.30      2.30      2.56      2.68         0.64
  WS02006243WS02006242        2.33      2.33      2.45      0.01         0.05
  WS02006245WS02006243        2.31      2.32      2.31      1.42         0.98
  WS02006247WS02006245        2.31      2.35      2.31      3.63         1.37
  WS02006248WS02006247        2.30      2.30      2.33      0.01         0.07
  WS02006249WS02006248        2.28      2.28      2.31      2.82         0.01
  WS02006251WS02006249        2.30      2.31      2.31      2.74         2.25
  WS02006252WS02006251        2.87      2.87      2.90      2.49         0.01
  WS02006253WS02006251        2.30      2.31      2.33      0.58         0.01
  WS02006256WS02006235        4.11      4.17      7.12      0.62         0.01
  WS02006280WS02006229        0.56      0.56      0.68      0.01         0.01
  WS02006284WS02006280        0.49      0.49      0.55      0.01         0.01
  WS02006287WS02006284        0.41      0.41      0.50      0.17         0.16
  YS02001580YS02001583        0.39      0.39      0.43      0.01         0.01
  YS02001583YS02001586        0.40      0.40      0.51      0.01         0.01
  YS02001586YS02001590        0.52      0.52      0.57      0.01         0.01
  YS02001590YS02001593        0.58      0.58      0.59      0.60         0.01
  YS02001593YS02001596        0.58      0.58      0.67      0.01         0.01
  YS02001596YS02001600        0.71      0.71      0.79      0.01         0.01
  YS02001600YS02001601        0.85      0.85      1.12      0.01         0.01
  YS02001601YS02001602        1.01      1.01      1.16      0.80         0.01
  YS02001602YS02001605        0.96      0.96      1.01      1.99         0.01
  YS02001605YS02001607        0.92      0.96      0.92      1.08         0.92
  YS02001607YS02001610        0.55      0.55      0.56      0.01         0.01
  YS02001610YS02001613        0.54      0.54      0.56      0.01         0.01
  YS02001613YS02001616        0.50      0.50      0.54      0.01         0.01
  YS02001616YS02001619        0.49      0.49      0.50      0.01         0.01
  YS02001619YS02001622        0.49      0.49      0.49      0.60         0.47
  YS02001622YS02001625        0.49      0.49      0.64      0.01         0.01
  YS02001625YS02001629        0.45      0.45      0.64      0.01         0.01
  YS02001629YS02163301        0.64      0.64      0.64      0.17         0.15
  YS02001633YS02163601        0.66      0.66      0.69      0.30         0.30
  YS02001641YS02001644        0.57      0.60      0.57      1.20         0.56
  YS02001644YS02001647        0.40      0.40      0.57      0.03         0.01
  YS02001647YS02001649        0.40      0.40      0.49      0.01         0.01
  YS02001649YS02001757        0.48      0.49      0.53      0.07         0.07
  YS02001652YS02001649        0.35      0.35      0.49      0.01         0.01
  YS02001655YS02001652        0.23      0.23      0.33      0.01         0.01
  YS02001658YS02001655        0.09      0.09      0.23      0.01         0.01
  YS02001661YS02001658        0.01      0.01      0.09      0.01         0.01
  YS02001664YS02001661        0.01      0.01      0.02      0.01         0.01
  YS02001745YS02001748        0.01      0.01      0.02      0.01         0.01
  YS02001748YS02001751        0.08      0.08      0.15      0.01         0.01
  YS02001751YS02001754        0.15      0.15      0.25      0.01         0.01
  YS02001754YS02001757        0.29      0.29      0.53      0.01         0.01
  YS02001757CaochengTiaoxuchi        0.52      0.53      1.57      0.26         0.22
  YS02001759YS02001757        0.45      0.45      0.53      0.01         0.01
  YS02001762YS02001759        0.43      0.43      0.45      0.01         0.02
  YS02001765YS02001762        0.39      0.39      0.43      0.01         0.01
  YS02001767YS02001765        0.36      0.36      0.39      0.01         0.03
  YS02001770YS02001767        0.36      0.36      0.36      0.39         0.26
  YS02001774YS02001770        0.35      0.35      0.41      0.01         0.01
  YS02001779YS02001774        0.26      0.26      0.41      0.01         0.01
  YS02001783YS02001784        0.36      0.38      0.36      0.51         0.36
  YS02001784YS02001785        0.27      0.36      0.27      0.69         0.27
  YS02001786YS02001788        0.01      0.27      0.01      0.59         0.01
  YS02001790YS02001791        0.01      0.01      0.01      0.35         0.01
  YS02001793JiankangQianchi        0.01      0.01      6.62      0.01         0.01
  YS02001882YS02001884        0.34      0.34      0.35      0.01         0.01
  YS02001884YS02001887        0.37      0.37      0.38      0.01         0.01
  YS02001887YS02001890        0.39      0.39      0.40      0.03         0.01
  YS02001890YS02001895        0.33      0.33      0.41      0.01         0.01
  YS02001895YS02001898        0.32      0.32      0.33      0.01         0.01
  YS02001898YS02001901        0.33      0.33      0.37      0.01         0.01
  YS02001901YS02001904        0.36      0.36      0.37      0.01         0.01
  YS02001904YS02001907        0.36      0.36      0.58      0.01         0.01
  YS02001907YS02006553        0.70      0.70      0.76      0.01         0.01
  YS02001910YS02001907        0.41      0.41      0.56      0.01         0.01
  YS02001915YS02001910        0.34      0.34      0.41      0.01         0.01
  YS02001918YS02001915        0.26      0.26      0.34      0.01         0.01
  YS02001920YS02001918        0.26      0.26      0.28      0.01         0.01
  YS02001923YS02001920        0.22      0.22      0.28      0.01         0.01
  YS02001926YS02001923        0.01      0.01      0.01      0.01         0.01
  YS02001929YS02001926        0.01      0.01      0.01      0.01         0.01
  YS02006553YS02006556        0.49      0.49      0.58      0.01         0.01
  YS02006556YS02006558        0.53      0.53      0.59      0.01         0.01
  YS02006558YS02006561        0.30      0.48      0.30      0.66         0.30
  YS02006561YS02001783        0.23      0.23      0.38      0.01         0.01
  YS02163301YS02001633        0.64      0.64      0.68      0.01         0.01
  YS02163601YS02164001        0.61      0.61      0.69      0.06         0.01
  YS02164001YS02001641        0.60      0.61      0.60      0.59         0.49
  YSB1154YSB6556              0.52      0.52      0.63      0.01         0.01
  YSB1171HS02004479           0.43      0.43      0.63      0.01         0.01
  YSB1174YSB1171              0.57      0.57      0.84      0.01         0.01
  YSB6556YSB1171              0.52      0.52      0.98      0.01         0.01
  
  
  ***************
  Pumping Summary
  ***************
  
  ---------------------------------------------------------------------------------------------------------
                                                  Min       Avg       Max     Total     Power    % Time Off
                        Percent   Number of      Flow      Flow      Flow    Volume     Usage    Pump Curve
  Pump                 Utilized   Start-Ups       LPS       LPS       LPS  10^6 ltr     Kw-hr    Low   High
  ---------------------------------------------------------------------------------------------------------
  CC-R1                   13.62           6      0.00    683.00    683.00     2.679     49.84    0.0    8.2
  CC-R2                    8.49          10      0.00    683.00    683.00     1.671     31.22    0.0   14.2
  CC-S1                   41.57          31      0.00    200.00    200.00     2.394     16.15    0.0    0.0
  CC-S2                   40.61          22      0.00    200.00    200.00     2.339     15.78    0.0    0.0
  JK-R1                    5.12          17      0.00   1000.00   1000.00     1.475     13.12    0.0    0.0
  JK-R2                    3.11          13      0.00   1000.00   1000.00     0.894      7.33    0.0    0.0
  JK-S                    10.68          44      0.00    300.00    300.00     0.922     16.40    0.0    0.0
  XR-1                    97.91           2      0.00     95.00     95.00     2.679      9.64    0.0    0.0
  XR-2                    93.94           2      0.00     95.00     95.00     2.570      8.80    0.0    0.0
  XR-3                     0.00           1      0.00     95.00     95.00     0.000      0.00    0.0    0.0
  XR-4                     0.00           1      0.00     95.00     95.00     0.000      0.00    0.0    0.0
  

  Analysis begun on:  Mon Feb 27 13:40:22 2023
  Analysis ended on:  Mon Feb 27 13:40:26 2023
  Total elapsed time: 00:00:04