
  OWA STORM WATER MANAGEMENT MODEL - VERSION v5.1.14 (OWA 2023-01-25)
  --------------------------------------------------------------

  WARNING 04: minimum elevation drop used for Conduit WS02004404WS02004405
  WARNING 03: negative offset ignored for Link YS02001904YS02001907
  
  *********************************************************
  NOTE: The summary statistics displayed in this report are
  based on results found at every computational time step,  
  not just on results from each reporting time step.
  *********************************************************
  
  ****************
  Analysis Options
  ****************
  Flow Units ............... LPS
  Process Models:
    Rainfall/Runoff ........ YES
    RDII ................... NO
    Snowmelt ............... NO
    Groundwater ............ NO
    Flow Routing ........... YES
    Ponding Allowed ........ NO
    Water Quality .......... NO
  Infiltration Method ...... HORTON
  Flow Routing Method ...... DYNWAVE
  Surcharge Method ......... EXTRAN
  Starting Date ............ 08/28/2015 08:00:00
  Ending Date .............. 08/28/2015 16:00:00
  Antecedent Dry Days ...... 8.0
  Report Time Step ......... 00:01:00
  Wet Time Step ............ 00:01:00
  Dry Time Step ............ 00:01:00
  Routing Time Step ........ 30.00 sec
  Variable Time Step ....... YES
  Maximum Trials ........... 8
  Number of Threads ........ 1
  Head Tolerance ........... 0.001500 m
  
  
  **************************        Volume         Depth
  Runoff Quantity Continuity     hectare-m            mm
  **************************     ---------       -------
  Total Precipitation ......         3.319        54.785
  Evaporation Loss .........         0.000         0.000
  Infiltration Loss ........         0.239         3.942
  Surface Runoff ...........         3.020        49.845
  Final Storage ............         0.061         1.006
  Continuity Error (%) .....        -0.016
  
  
  **************************        Volume        Volume
  Flow Routing Continuity        hectare-m      10^6 ltr
  **************************     ---------     ---------
  Dry Weather Inflow .......         0.630         6.296
  Wet Weather Inflow .......         3.019        30.195
  Groundwater Inflow .......         0.000         0.000
  RDII Inflow ..............         0.000         0.000
  External Inflow ..........         0.105         1.045
  External Outflow .........         2.502        25.025
  Flooding Loss ............         1.246        12.457
  Evaporation Loss .........         0.000         0.000
  Exfiltration Loss ........         0.000         0.000
  Initial Stored Volume ....         0.303         3.031
  Final Stored Volume ......         0.321         3.213
  Continuity Error (%) .....        -0.318
  
  
  *************************
  Highest Continuity Errors
  *************************
  Node YS02001884 (5.24%)
  Node YS02001583 (-5.00%)
  Node WS02006256 (-2.05%)
  Node YS02001774 (1.86%)
  Node HS02004842 (1.65%)
  
  
  ***************************
  Time-Step Critical Elements
  ***************************
  Link WS02006252WS02006251 (33.14%)
  Link WS02006280WS02006229 (21.83%)
  Link WS02006238WS02006235 (17.15%)
  Link WS02004404WS02004405 (7.28%)
  Link YS02001791YS02001793 (5.35%)
  
  
  ********************************
  Highest Flow Instability Indexes
  ********************************
  Link WS02006113WS02006111 (40)
  Link WS02004404WS02004405 (25)
  Link WS02004403WS02004404 (22)
  Link WS02006111WS02006112 (21)
  Link WS02006256WS02006235 (18)
  
  
  *************************
  Routing Time Step Summary
  *************************
  Minimum Time Step           :     0.01 sec
  Average Time Step           :     1.76 sec
  Maximum Time Step           :     6.46 sec
  Percent in Steady State     :    -0.00
  Average Iterations per Step :     3.25
  Percent Not Converging      :    12.67
  
  
  ***************************
  Subcatchment Runoff Summary
  ***************************
  
  ------------------------------------------------------------------------------------------------------------------------------
                            Total      Total      Total      Total     Imperv       Perv      Total       Total     Peak  Runoff
                           Precip      Runon       Evap      Infil     Runoff     Runoff     Runoff      Runoff   Runoff   Coeff
  Subcatchment                 mm         mm         mm         mm         mm         mm         mm    10^6 ltr      LPS
  ------------------------------------------------------------------------------------------------------------------------------
  sub0                      54.78       0.00       0.00       1.00      49.70       2.83      52.53        0.04    27.06   0.959
  sub1                      54.78       0.00       0.00       1.70      47.51       4.32      51.83        0.34   183.68   0.946
  sub10                     54.78       0.00       0.00       1.20      49.12       3.18      52.30        0.58   313.89   0.955
  sub11                     54.78       0.00       0.00       1.19      49.14       3.20      52.33        0.61   348.19   0.955
  sub12                     54.78       0.00       0.00       1.93      46.48       5.20      51.68        0.45   276.90   0.943
  sub14                     54.78       0.00       0.00       1.35      48.59       3.58      52.17        0.50   277.90   0.952
  sub15                     54.78       0.00       0.00       5.26      37.38      11.18      48.56        0.84   425.15   0.886
  sub16                     54.78       0.00       0.00       5.45      35.79      12.63      48.43        0.51   285.38   0.884
  sub17                     54.78       0.00       0.00       5.31      36.33      12.22      48.55        0.42   231.93   0.886
  sub2                      54.78       0.00       0.00       7.46      33.61      12.82      46.42        0.43   187.13   0.847
  sub22                     54.78       0.00       0.00       7.95      30.44      15.61      46.06        2.91  1405.27   0.841
  sub23                     54.78       0.00       0.00       6.50      33.65      13.78      47.43        2.26  1168.58   0.866
  sub3                      54.78       0.00       0.00       8.07      33.57      12.21      45.77        1.03   405.90   0.836
  sub4                      54.78       0.00       0.00       1.89      47.34       4.14      51.48        1.07   452.45   0.940
  sub5                      54.78       0.00       0.00       1.05      49.64       2.79      52.43        0.59   317.24   0.957
  sub60                     54.78       0.00       0.00       1.81      47.00       4.76      51.76        0.68   394.33   0.945
  sub61                     54.78       0.00       0.00       2.63      44.34       6.69      51.02        0.94   546.20   0.931
  sub62                     54.78       0.00       0.00       1.21      49.11       3.18      52.29        1.43   768.91   0.954
  sub63                     54.78       0.00       0.00       4.83      37.92      11.06      48.98        1.11   609.05   0.894
  sub64                     54.78       0.00       0.00       2.44      45.36       5.77      51.13        1.23   627.03   0.933
  sub65                     54.78       0.00       0.00       2.12      46.41       5.01      51.41        1.42   701.93   0.938
  sub66                     54.78       0.00       0.00       5.93      37.82       9.96      47.78        2.23   914.48   0.872
  sub67                     54.78       0.00       0.00       1.17      49.15       3.22      52.37        0.97   589.48   0.956
  sub68                     54.78       0.00       0.00       2.18      45.92       5.50      51.42        1.42   788.22   0.939
  sub69                     54.78       0.00       0.00       1.93      46.45       6.29      52.74        1.95   935.95   0.963
  sub7                      54.78       0.00       0.00       1.33      48.61       3.60      52.21        0.18   102.90   0.953
  sub70                     54.78       0.00       0.00       6.35      35.99      12.28      48.27        1.39   516.65   0.881
  sub71                     54.78       0.00       0.00       1.24      49.07       3.14      52.22        1.37   681.03   0.953
  sub72                     54.78       0.00       0.00       1.10      49.54       2.73      52.28        0.72   329.72   0.954
  sub8                      54.78       0.00       0.00       1.35      48.60       3.59      52.18        0.33   189.02   0.953
  sub9                      54.78       0.00       0.00       1.35      48.60       3.58      52.18        0.25   141.26   0.952
  
  
  ******************
  Node Depth Summary
  ******************
  
  ---------------------------------------------------------------------------------
                                 Average  Maximum  Maximum  Time of Max    Reported
                                   Depth    Depth      HGL   Occurrence   Max Depth
  Node                 Type       Meters   Meters   Meters  days hr:min      Meters
  ---------------------------------------------------------------------------------
  HS02004478           JUNCTION     0.18     1.57    10.80     0  01:58        1.55
  HS02004479           JUNCTION     0.25     1.71    10.91     0  01:58        1.68
  HS02004480           JUNCTION     0.21     1.69    10.93     0  01:58        1.66
  HS02004770           JUNCTION     0.23     1.42    11.25     0  01:56        1.42
  HS02004777           JUNCTION     0.25     1.48    11.28     0  01:56        1.45
  HS02004785           JUNCTION     0.15     1.49    11.39     0  01:56        1.35
  HS02004788           JUNCTION     0.12     1.42    11.32     0  01:56        1.35
  HS02004792           JUNCTION     0.16     1.60    11.12     0  01:56        1.60
  HS02004799           JUNCTION     0.27     1.76    10.97     0  01:58        1.76
  HS02004802           JUNCTION     0.27     1.79    10.92     0  01:58        1.77
  HS02004807           JUNCTION     0.24     1.92    11.09     0  01:58        1.92
  HS02004817           JUNCTION     0.54     2.44    11.29     0  01:58        2.36
  HS02004824           JUNCTION     0.12     2.01    11.41     0  01:58        1.93
  HS02004830           JUNCTION     0.13     2.03    11.50     0  01:58        1.94
  HS02004837           JUNCTION     0.10     2.04    11.62     0  01:58        1.89
  HS02004842           JUNCTION     0.39     2.22    11.49     0  01:58        2.22
  HS02004848           JUNCTION     0.08     2.07    11.67     0  01:58        2.07
  HS02004852           JUNCTION     0.09     2.12    11.63     0  01:58        2.12
  HS02004856           JUNCTION     0.15     2.07    11.50     0  01:58        2.07
  HS02004862           JUNCTION     0.10     2.00    11.38     0  01:58        2.00
  HS02004870           JUNCTION     0.09     2.10    11.39     0  01:58        1.88
  HS02004876           JUNCTION     0.14     2.11    11.14     0  01:58        1.88
  HS02004881           JUNCTION     0.09     1.83    10.85     0  01:58        1.60
  HS02004901           JUNCTION     0.23     1.42    11.24     0  01:56        1.42
  WS02001211           JUNCTION     0.63     0.81     5.64     0  02:05        0.81
  WS02001212           JUNCTION     0.37     0.57     5.63     0  02:06        0.57
  WS02001213           JUNCTION     0.60     0.86     5.62     0  02:05        0.86
  WS02003059           JUNCTION     0.66     0.93     5.62     0  02:06        0.93
  WS02003060           JUNCTION     0.39     0.68     5.61     0  02:05        0.68
  WS02003066           JUNCTION     0.24     0.45     6.00     0  02:02        0.45
  WS02003067           JUNCTION     0.58     0.88     6.20     0  02:01        0.88
  WS02003069           JUNCTION     0.44     0.77     5.36     0  02:06        0.77
  WS02003072           JUNCTION     0.50     0.81     5.18     0  02:06        0.81
  WS02003073           JUNCTION     0.30     0.51     4.58     0  02:06        0.51
  WS02004138           JUNCTION     0.13     0.14     7.39     0  00:32        0.14
  WS02004139           JUNCTION     0.57     0.74     5.65     0  02:05        0.74
  WS02004401           JUNCTION     0.79     1.81     7.81     0  02:03        1.79
  WS02004402           JUNCTION     0.81     1.75     7.71     0  02:03        1.74
  WS02004403           JUNCTION     0.82     1.69     7.62     0  02:03        1.68
  WS02004404           JUNCTION     0.89     1.74     7.59     0  02:03        1.74
  WS02004405           JUNCTION     0.87     1.66     7.51     0  02:03        1.66
  WS02004406           JUNCTION     0.86     1.54     7.37     0  02:03        1.53
  WS02004407           JUNCTION     0.27     0.89     7.20     0  02:02        0.89
  WS02004409           JUNCTION     0.57     1.36     7.13     0  02:02        1.35
  WS02004410           JUNCTION     0.57     1.28     7.00     0  02:01        1.27
  WS02004411           JUNCTION     0.58     1.19     6.87     0  02:02        1.18
  WS02004412           JUNCTION     0.58     1.09     6.73     0  02:03        1.09
  WS02004413           JUNCTION     0.72     1.14     6.61     0  02:03        1.14
  WS02006109           JUNCTION     0.99     2.64     9.26     0  01:56        2.64
  WS02006110           JUNCTION     0.93     2.38     8.96     0  02:03        2.36
  WS02006111           JUNCTION     0.40     1.68     8.39     0  02:02        1.67
  WS02006112           JUNCTION     1.01     2.30     8.18     0  02:01        2.29
  WS02006113           JUNCTION     0.50     1.79     8.68     0  02:03        1.78
  WS02006115           JUNCTION     0.71     1.89     8.03     0  02:01        1.89
  WS02006116           JUNCTION     0.78     1.89     7.93     0  02:02        1.89
  WS02006228           JUNCTION     1.04     3.03     9.68     0  02:03        3.03
  WS02006229           JUNCTION     1.04     3.25     9.94     0  02:03        3.25
  WS02006230           JUNCTION     1.00     2.65     9.39     0  01:53        2.65
  WS02006231           JUNCTION     0.72     2.22     9.34     0  02:31        2.22
  WS02006232           JUNCTION     0.84     2.18     9.22     0  01:53        2.18
  WS02006234           JUNCTION     0.73     1.96     9.12     0  01:51        1.96
  WS02006235           JUNCTION     0.75     2.00     9.16     0  02:35        1.95
  WS02006238           JUNCTION     0.78     2.04     9.19     0  02:35        1.95
  WS02006239           JUNCTION     0.74     1.91     9.12     0  02:35        1.84
  WS02006240           JUNCTION     0.69     2.10     9.39     0  04:10        1.68
  WS02006242           JUNCTION     0.74     1.55     8.82     0  01:39        1.55
  WS02006243           JUNCTION     0.64     1.48     8.90     0  04:10        1.37
  WS02006245           JUNCTION     0.62     1.33     8.82     0  03:26        1.28
  WS02006247           JUNCTION     0.63     1.29     8.79     0  01:39        1.23
  WS02006248           JUNCTION     0.58     1.10     8.69     0  01:40        1.10
  WS02006249           JUNCTION     0.60     1.09     8.69     0  01:40        1.09
  WS02006251           JUNCTION     0.68     2.18     9.85     0  01:58        2.13
  WS02006252           JUNCTION     0.47     1.50     9.74     0  00:00        1.50
  WS02006253           JUNCTION     0.73     3.00    10.65     0  01:58        2.83
  WS02006256           JUNCTION     1.05     2.35     9.28     0  00:00        2.35
  WS02006280           JUNCTION     0.23     1.73    10.00     0  02:03        1.73
  WS02006284           JUNCTION     0.50     1.93    10.33     0  01:58        1.92
  WS02006287           JUNCTION     0.23     1.73    10.69     0  01:58        1.71
  WSF200               JUNCTION     0.24     0.51     5.75     0  02:04        0.51
  YS02001580           JUNCTION     0.06     1.05     9.59     0  01:56        1.05
  YS02001583           JUNCTION     0.09     1.01     9.51     0  01:56        1.01
  YS02001586           JUNCTION     0.15     1.13     9.30     0  01:56        1.13
  YS02001590           JUNCTION     0.24     1.40     9.26     0  02:03        1.40
  YS02001593           JUNCTION     0.17     1.29     9.16     0  01:57        1.29
  YS02001596           JUNCTION     0.23     1.66     9.08     0  01:56        1.65
  YS02001600           JUNCTION     0.29     1.87     9.00     0  01:56        1.86
  YS02001601           JUNCTION     0.48     2.06     8.90     0  01:55        2.06
  YS02001602           JUNCTION     0.40     1.87     8.77     0  01:55        1.87
  YS02001605           JUNCTION     0.37     1.78     8.68     0  02:03        1.78
  YS02001607           JUNCTION     0.37     1.66     8.50     0  02:23        1.66
  YS02001610           JUNCTION     0.41     1.68     8.48     0  01:58        1.68
  YS02001613           JUNCTION     0.37     1.68     8.52     0  02:23        1.68
  YS02001616           JUNCTION     0.31     1.61     8.52     0  02:03        1.61
  YS02001619           JUNCTION     0.28     1.61     8.54     0  02:03        1.61
  YS02001622           JUNCTION     0.27     1.59     8.50     0  02:03        1.59
  YS02001625           JUNCTION     0.53     1.78     8.38     0  01:58        1.78
  YS02001629           JUNCTION     0.38     1.85     8.40     0  02:00        1.85
  YS02001633           JUNCTION     0.46     2.00     8.45     0  02:00        2.00
  YS02001641           JUNCTION     0.45     1.97     8.41     0  02:03        1.97
  YS02001644           JUNCTION     0.44     1.92     8.35     0  02:00        1.92
  YS02001647           JUNCTION     0.24     1.75     8.36     0  02:00        1.72
  YS02001649           JUNCTION     0.28     1.96     8.35     0  02:01        1.93
  YS02001652           JUNCTION     0.18     1.87     8.46     0  02:00        1.74
  YS02001655           JUNCTION     0.13     1.78     8.63     0  02:00        1.50
  YS02001658           JUNCTION     0.09     1.73     8.88     0  02:00        1.26
  YS02001661           JUNCTION     0.13     1.35     8.75     0  02:01        1.03
  YS02001664           JUNCTION     0.05     0.57     8.49     0  02:01        0.44
  YS02001745           JUNCTION     0.05     0.78     8.30     0  02:01        0.77
  YS02001748           JUNCTION     0.09     1.74     8.82     0  02:00        1.18
  YS02001751           JUNCTION     0.11     1.71     8.59     0  02:00        1.33
  YS02001754           JUNCTION     0.16     1.79     8.40     0  02:00        1.56
  YS02001757           JUNCTION     0.31     2.02     8.28     0  02:00        1.90
  YS02001759           JUNCTION     0.25     1.97     8.34     0  02:00        1.94
  YS02001762           JUNCTION     0.24     1.97     8.37     0  02:00        1.95
  YS02001765           JUNCTION     0.22     1.94     8.39     0  02:00        1.93
  YS02001767           JUNCTION     0.22     1.92     8.41     0  02:03        1.92
  YS02001770           JUNCTION     0.23     1.94     8.43     0  02:00        1.93
  YS02001774           JUNCTION     0.29     1.99     8.41     0  02:00        1.98
  YS02001779           JUNCTION     0.14     1.68     8.37     0  01:59        1.68
  YS02001783           JUNCTION     0.20     1.29     7.43     0  01:59        1.29
  YS02001784           JUNCTION     0.21     1.15     7.22     0  02:03        1.15
  YS02001786           JUNCTION     0.18     0.90     6.93     0  01:59        0.87
  YS02001788           JUNCTION     0.13     0.62     6.60     0  02:00        0.62
  YS02001790           JUNCTION     0.16     0.72     6.37     0  02:03        0.72
  YS02001791           JUNCTION     0.10     0.44     5.91     0  02:02        0.43
  YS02001793           JUNCTION     0.05     0.28     5.11     0  02:00        0.27
  YS02001882           JUNCTION     0.25     1.68     8.40     0  01:58        1.62
  YS02001884           JUNCTION     0.34     1.77     8.39     0  01:58        1.72
  YS02001887           JUNCTION     0.41     1.83     8.37     0  01:58        1.81
  YS02001890           JUNCTION     0.44     1.81     8.32     0  01:58        1.81
  YS02001895           JUNCTION     0.22     1.57     8.31     0  01:59        1.57
  YS02001898           JUNCTION     0.23     1.57     8.30     0  01:59        1.55
  YS02001901           JUNCTION     0.34     1.68     8.29     0  01:59        1.67
  YS02001904           JUNCTION     0.32     1.64     8.27     0  01:59        1.64
  YS02001907           JUNCTION     0.63     1.96     8.25     0  01:59        1.96
  YS02001910           JUNCTION     0.43     1.96     8.46     0  01:59        1.82
  YS02001915           JUNCTION     0.25     1.90     8.62     0  01:59        1.68
  YS02001918           JUNCTION     0.12     1.81     8.88     0  01:59        1.36
  YS02001920           JUNCTION     0.20     2.12     9.13     0  01:59        1.46
  YS02001923           JUNCTION     0.09     2.03     9.29     0  01:59        1.24
  YS02001926           JUNCTION     0.13     1.90     9.35     0  01:59        1.12
  YS02001929           JUNCTION     0.07     1.78     9.47     0  01:59        0.96
  YS02006553           JUNCTION     0.64     1.99     8.27     0  02:03        1.99
  YS02006556           JUNCTION     0.61     1.94     8.25     0  01:59        1.93
  YS02006558           JUNCTION     0.65     1.98     8.25     0  02:00        1.98
  YS02006561           JUNCTION     0.12     1.02     7.68     0  01:59        1.02
  YS02163301           JUNCTION     0.40     1.91     8.43     0  02:03        1.91
  YS02163601           JUNCTION     0.50     2.03     8.43     0  02:00        2.00
  YS02164001           JUNCTION     0.43     1.95     8.41     0  02:00        1.94
  YSB1154              JUNCTION     0.38     1.89    10.95     0  02:03        1.89
  YSB1171              JUNCTION     0.52     1.95    10.85     0  01:58        1.95
  YSB1174              JUNCTION     0.33     1.79    10.90     0  01:58        1.78
  YSB6556              JUNCTION     0.28     1.74    10.91     0  02:03        1.74
  CC-1                 OUTFALL      0.00     0.00     0.00     0  00:00        0.00
  CC-2                 OUTFALL      0.00     0.00     0.00     0  00:00        0.00
  JK-1                 OUTFALL      0.00     0.00     0.00     0  00:00        0.00
  JK-2                 OUTFALL      0.00     0.00     0.00     0  00:00        0.00
  WSC                  OUTFALL      0.30     0.51     1.18     0  02:07        0.51
  CC-storage           STORAGE      0.82     1.62     7.12     0  02:28        1.62
  JK-storage           STORAGE      1.36     4.22     5.02     0  02:20        4.15
  XR-storage           STORAGE      7.90     9.26     7.26     0  08:00        9.26
  
  
  *******************
  Node Inflow Summary
  *******************
  
  -------------------------------------------------------------------------------------------------
                                  Maximum  Maximum                  Lateral       Total        Flow
                                  Lateral    Total  Time of Max      Inflow      Inflow     Balance
                                   Inflow   Inflow   Occurrence      Volume      Volume       Error
  Node                 Type           LPS      LPS  days hr:min    10^6 ltr    10^6 ltr     Percent
  -------------------------------------------------------------------------------------------------
  HS02004478           JUNCTION      0.00  2271.87     0  02:02           0        8.31      -0.011
  HS02004479           JUNCTION      0.00   448.20     0  01:58           0       0.807       0.108
  HS02004480           JUNCTION      0.00  2106.12     0  01:57           0        6.34       0.033
  HS02004770           JUNCTION   1168.58  1168.58     0  02:02        2.26        2.52       0.123
  HS02004777           JUNCTION      0.03   749.68     0  01:56    0.000864        1.91       0.273
  HS02004785           JUNCTION      0.15   769.14     0  01:56     0.00432        1.91       0.028
  HS02004788           JUNCTION    426.82   847.71     0  01:56       0.883        2.79      -0.009
  HS02004792           JUNCTION   1405.55  2149.31     0  02:02        2.92         5.7       0.010
  HS02004799           JUNCTION    277.90  1740.53     0  01:57       0.497        5.57       0.049
  HS02004802           JUNCTION      0.00   926.99     0  02:03           0           2       0.192
  HS02004807           JUNCTION    348.19   927.17     0  02:03       0.608        2.04       0.203
  HS02004817           JUNCTION      0.60   586.29     0  02:03      0.0173        1.49       1.120
  HS02004824           JUNCTION    452.50   659.05     0  01:57        1.08        1.68       0.007
  HS02004830           JUNCTION      0.15   656.70     0  01:57     0.00432       0.809       0.123
  HS02004837           JUNCTION    320.24   846.79     0  01:57        0.76        1.17       0.049
  HS02004842           JUNCTION      0.00   845.63     0  01:57           0       0.781       1.678
  HS02004848           JUNCTION    405.90  1089.26     0  01:58        1.03        1.64      -0.010
  HS02004852           JUNCTION      0.00  1052.14     0  01:58           0        1.49      -0.002
  HS02004856           JUNCTION    141.26  1102.58     0  01:58       0.251        1.74       0.054
  HS02004862           JUNCTION    187.33  1218.05     0  01:58       0.438        2.18      -0.047
  HS02004870           JUNCTION    189.02  1248.45     0  01:58       0.333        2.51      -0.004
  HS02004876           JUNCTION    183.68  1316.51     0  01:59       0.345        2.85       0.028
  HS02004881           JUNCTION    102.90  1402.73     0  01:59       0.176        3.03       0.005
  HS02004901           JUNCTION    285.38   523.44     0  02:03       0.507       0.756       0.237
  WS02001211           JUNCTION      7.35   203.72     0  03:00       0.212        5.44       0.611
  WS02001212           JUNCTION      0.00   207.43     0  03:00           0        5.41       0.290
  WS02001213           JUNCTION      0.00   210.52     0  02:40           0        5.39       0.334
  WS02003059           JUNCTION      0.00   213.86     0  02:40           0        5.38       0.597
  WS02003060           JUNCTION     16.53  1483.54     0  02:05       0.476        16.4       0.090
  WS02003066           JUNCTION      0.00  1279.15     0  02:02           0        10.5       0.015
  WS02003067           JUNCTION      0.00  1279.06     0  02:03           0        10.5       0.042
  WS02003069           JUNCTION      0.32  1483.38     0  02:06     0.00922        16.3       0.096
  WS02003072           JUNCTION      0.00  1483.24     0  02:06           0        16.3       0.129
  WS02003073           JUNCTION      1.82  1484.97     0  02:07      0.0524        16.4       0.135
  WS02004138           JUNCTION      0.00   380.00     0  00:00           0        5.25       0.054
  WS02004139           JUNCTION      0.32   190.32     0  00:32     0.00924        5.26       0.509
  WS02004401           JUNCTION      0.00  1278.99     0  02:02           0        10.6       0.100
  WS02004402           JUNCTION      0.00  1278.99     0  02:01           0        10.6       0.101
  WS02004403           JUNCTION      0.00  1278.97     0  02:01           0        10.6       0.098
  WS02004404           JUNCTION      0.16  1279.51     0  02:01     0.00467        10.6       0.086
  WS02004405           JUNCTION      0.04  1279.44     0  02:01      0.0011        10.6       0.107
  WS02004406           JUNCTION      0.00  1279.10     0  02:03           0        10.6       0.201
  WS02004407           JUNCTION      0.00  1279.30     0  02:03           0        10.6       0.016
  WS02004409           JUNCTION      0.00  1279.30     0  02:02           0        10.6       0.031
  WS02004410           JUNCTION      0.00  1279.35     0  02:02           0        10.6       0.049
  WS02004411           JUNCTION      0.00  1279.25     0  02:03           0        10.6       0.061
  WS02004412           JUNCTION      0.00  1279.13     0  02:03           0        10.6       0.078
  WS02004413           JUNCTION      0.00  1279.01     0  02:02           0        10.6       0.138
  WS02006109           JUNCTION      1.23  1273.45     0  02:03      0.0354        10.5       0.093
  WS02006110           JUNCTION      0.00  1122.96     0  02:18           0        10.3       0.078
  WS02006111           JUNCTION      0.00  1123.42     0  02:18           0        10.3       0.005
  WS02006112           JUNCTION    231.93  1278.69     0  02:02       0.417        10.7       0.196
  WS02006113           JUNCTION      0.00  1123.16     0  02:18           0        10.3       0.027
  WS02006115           JUNCTION      0.00  1278.67     0  02:01           0        10.7       0.069
  WS02006116           JUNCTION      0.00  1278.85     0  02:01           0        10.7       0.042
  WS02006228           JUNCTION      0.00  1272.01     0  02:03           0        10.4       0.034
  WS02006229           JUNCTION      0.00  2271.87     0  02:02           0        12.5       0.069
  WS02006230           JUNCTION     10.28  1010.45     0  02:03       0.296        6.34       0.122
  WS02006231           JUNCTION      0.00   563.43     0  03:55           0        5.26      -0.033
  WS02006232           JUNCTION      0.00   562.09     0  03:55           0        5.26       0.111
  WS02006234           JUNCTION      0.00   557.88     0  03:55           0        5.25      -0.166
  WS02006235           JUNCTION      0.00   550.32     0  03:55           0        5.29       0.176
  WS02006238           JUNCTION      0.00   426.32     0  03:37           0        5.09      -0.195
  WS02006239           JUNCTION      0.00   426.75     0  03:37           0        5.05      -0.234
  WS02006240           JUNCTION      0.00   426.95     0  03:37           0        5.03      -0.033
  WS02006242           JUNCTION      0.00   426.99     0  03:37           0        5.03       0.014
  WS02006243           JUNCTION      0.00   426.96     0  03:37           0        4.68      -0.314
  WS02006245           JUNCTION      0.00   426.86     0  03:37           0        4.69       0.237
  WS02006247           JUNCTION      0.00   427.68     0  03:42           0        4.69       0.018
  WS02006248           JUNCTION      0.00   431.15     0  03:42           0        4.95      -0.015
  WS02006249           JUNCTION      0.00  1342.98     0  01:59           0        8.05       0.064
  WS02006251           JUNCTION      0.08  1432.56     0  01:59     0.00222        8.16      -0.003
  WS02006252           JUNCTION      0.00   493.64     0  01:59           0        5.35      -0.201
  WS02006253           JUNCTION     27.06  1429.39     0  01:59      0.0425        3.16       0.027
  WS02006256           JUNCTION      0.00   300.00     0  00:00           0       0.883      -2.012
  WS02006280           JUNCTION      0.00  2271.33     0  02:03           0         8.3       0.003
  WS02006284           JUNCTION      0.10  2271.39     0  02:03     0.00275         8.3       0.006
  WS02006287           JUNCTION      0.00  2271.87     0  02:01           0         8.3       0.011
  WSF200               JUNCTION      0.00  1279.04     0  02:02           0        10.5       0.007
  YS02001580           JUNCTION      0.00   114.03     0  01:55           0      0.0041      -3.557
  YS02001583           JUNCTION      0.00   157.76     0  01:55           0      0.0151      -4.762
  YS02001586           JUNCTION    516.65   516.71     0  02:04        1.39        1.41       0.097
  YS02001590           JUNCTION      0.00   317.97     0  02:00           0        1.24      -0.026
  YS02001593           JUNCTION      0.00   318.07     0  02:00           0        1.24       0.002
  YS02001596           JUNCTION      0.00   318.10     0  02:16           0        1.24      -0.008
  YS02001600           JUNCTION      0.00   317.98     0  02:00           0        1.24       0.006
  YS02001601           JUNCTION    935.95  1253.89     0  02:03        1.95        3.19       0.024
  YS02001602           JUNCTION      0.00   516.35     0  01:55           0        2.22       0.019
  YS02001605           JUNCTION      0.00   515.77     0  01:55           0        2.12       0.027
  YS02001607           JUNCTION      0.00   515.31     0  01:55           0        2.12       0.092
  YS02001610           JUNCTION      0.00   516.62     0  01:54           0        2.14       0.106
  YS02001613           JUNCTION      0.00   516.28     0  01:54           0        1.81       0.098
  YS02001616           JUNCTION      0.00   513.78     0  01:55           0        1.81       0.023
  YS02001619           JUNCTION    914.48   922.10     0  01:57        2.23        4.02       0.002
  YS02001622           JUNCTION      0.00   921.04     0  01:58           0        3.99       0.000
  YS02001625           JUNCTION      0.00  1037.60     0  02:05           0        4.04       0.220
  YS02001629           JUNCTION      0.00   921.88     0  01:58           0        3.39       0.026
  YS02001633           JUNCTION    702.13  1372.37     0  01:58        1.42        4.74       0.072
  YS02001641           JUNCTION      0.00  1373.68     0  01:58           0        4.69       0.059
  YS02001644           JUNCTION    627.07  1788.17     0  01:58        1.23        5.91       0.057
  YS02001647           JUNCTION      0.00  1788.12     0  01:58           0        5.83       0.007
  YS02001649           JUNCTION      0.00  1995.35     0  01:58           0        6.94       0.005
  YS02001652           JUNCTION      0.00   734.12     0  02:02           0        1.12      -0.092
  YS02001655           JUNCTION      0.15   732.97     0  02:02     0.00443        1.12      -0.068
  YS02001658           JUNCTION      0.00   730.95     0  02:02           0        1.11      -0.076
  YS02001661           JUNCTION      0.00   771.57     0  02:01           0        1.11       0.023
  YS02001664           JUNCTION    609.05   609.05     0  02:02        1.11        1.11      -0.008
  YS02001745           JUNCTION    394.34   438.47     0  02:00        0.68       0.681       0.215
  YS02001748           JUNCTION      0.04   597.56     0  02:00      0.0013       0.681      -0.396
  YS02001751           JUNCTION      0.01   472.19     0  02:01    0.000317        0.69       0.098
  YS02001754           JUNCTION      0.26   470.88     0  02:01     0.00749       0.704      -0.240
  YS02001757           JUNCTION      0.00  3283.23     0  02:01           0          10       0.030
  YS02001759           JUNCTION    546.24  1279.55     0  02:03       0.937        2.38      -0.008
  YS02001762           JUNCTION      0.00   750.22     0  02:03           0        1.44       0.009
  YS02001765           JUNCTION      0.00   750.35     0  02:03           0        1.44       0.003
  YS02001767           JUNCTION      0.54   750.59     0  02:03      0.0154        1.44       0.010
  YS02001770           JUNCTION    769.06   769.06     0  02:02        1.44        1.48      -0.013
  YS02001774           JUNCTION      0.00   320.47     0  01:59           0      0.0719       1.893
  YS02001779           JUNCTION      0.01   324.46     0  01:59    0.000144      0.0264      -4.046
  YS02001783           JUNCTION      0.00  1156.01     0  02:01           0        3.86       0.006
  YS02001784           JUNCTION      1.06  1157.33     0  02:00      0.0305        3.89       0.013
  YS02001786           JUNCTION      0.06  1157.42     0  02:00     0.00162        3.89       0.015
  YS02001788           JUNCTION      0.07  1157.66     0  02:00     0.00204        3.89       0.008
  YS02001790           JUNCTION      0.15  1169.41     0  02:00     0.00446        3.89       0.010
  YS02001791           JUNCTION      0.00  1289.00     0  02:03           0        3.89      -0.016
  YS02001793           JUNCTION      0.00  1242.71     0  02:00           0         3.9       0.006
  YS02001882           JUNCTION      0.00    44.06     0  01:57           0      0.0125       4.595
  YS02001884           JUNCTION      0.00    82.01     0  01:56           0      0.0484       5.532
  YS02001887           JUNCTION    589.93   590.32     0  02:02       0.987        1.02       0.438
  YS02001890           JUNCTION      0.00   590.97     0  02:01           0        0.98       0.519
  YS02001895           JUNCTION      0.00   516.23     0  02:03           0       0.957       0.152
  YS02001898           JUNCTION      0.00   515.67     0  02:04           0       0.956       0.007
  YS02001901           JUNCTION      0.00   515.65     0  02:04           0       0.958       0.349
  YS02001904           JUNCTION      0.00   515.55     0  02:04           0       0.962       0.288
  YS02001907           JUNCTION      0.00  1562.95     0  02:03           0        3.12       0.579
  YS02001910           JUNCTION      0.00  1048.61     0  02:03           0        2.17       0.331
  YS02001915           JUNCTION    681.05  1047.65     0  02:03        1.37        2.21       0.071
  YS02001918           JUNCTION      0.00   447.36     0  02:00           0       0.868       0.033
  YS02001920           JUNCTION      2.87   447.65     0  02:00      0.0827       0.852       0.108
  YS02001923           JUNCTION      0.04   432.92     0  01:59     0.00109       0.753      -0.133
  YS02001926           JUNCTION      0.05   621.91     0  01:59      0.0015       0.733      -0.001
  YS02001929           JUNCTION    329.72   396.01     0  01:59       0.719       0.721      -0.043
  YS02006553           JUNCTION      0.00   795.25     0  02:17           0        2.47       0.479
  YS02006556           JUNCTION      0.00   795.11     0  02:17           0        2.47       0.327
  YS02006558           JUNCTION    789.10  1157.09     0  02:00        1.44        3.89       0.096
  YS02006561           JUNCTION      0.00  1156.33     0  02:00           0        3.86      -0.003
  YS02163301           JUNCTION      0.00   923.12     0  01:58           0        3.38       0.044
  YS02163601           JUNCTION      0.11  1372.12     0  01:58     0.00317        4.68       0.102
  YS02164001           JUNCTION      0.00  1372.88     0  01:58           0        4.68       0.048
  YSB1154              JUNCTION    317.24   317.24     0  02:02       0.594       0.595       0.248
  YSB1171              JUNCTION      0.00   594.60     0  02:02           0        1.05       0.600
  YSB1174              JUNCTION    276.90   276.90     0  02:02       0.452       0.452       0.282
  YSB6556              JUNCTION      0.00   317.43     0  02:02           0       0.596       0.181
  CC-1                 OUTFALL       0.00   683.00     0  00:00           0        3.18       0.000
  CC-2                 OUTFALL       0.00   683.00     0  00:00           0        2.37       0.000
  JK-1                 OUTFALL       0.00  1000.00     0  00:00           0        1.94       0.000
  JK-2                 OUTFALL       0.00  1000.00     0  00:00           0        1.19       0.000
  WSC                  OUTFALL       0.00  1485.17     0  02:07           0        16.3       0.000
  CC-storage           STORAGE       0.00  3282.84     0  02:01           0        12.2      -0.239
  JK-storage           STORAGE       0.00  1236.32     0  02:04           0        4.05      -0.420
  XR-storage           STORAGE     200.00   200.00     0  00:00        5.76        6.36       0.001
  
  
  **********************
  Node Surcharge Summary
  **********************
  
  Surcharging occurs when water rises above the top of the highest conduit.
  ---------------------------------------------------------------------
                                               Max. Height   Min. Depth
                                   Hours       Above Crown    Below Rim
  Node                 Type      Surcharged         Meters       Meters
  ---------------------------------------------------------------------
  HS02004478           JUNCTION        0.42          0.652        0.288
  HS02004479           JUNCTION        0.56          0.908        0.142
  HS02004480           JUNCTION        0.59          0.979        0.121
  HS02004770           JUNCTION        0.50          0.720        0.000
  HS02004777           JUNCTION        0.50          0.780        0.000
  HS02004785           JUNCTION        0.45          0.790        0.000
  HS02004788           JUNCTION        0.44          0.720        0.000
  HS02004792           JUNCTION        0.56          0.900        0.000
  HS02004799           JUNCTION        0.69          1.060        0.000
  HS02004802           JUNCTION        0.60          1.080        0.130
  HS02004807           JUNCTION        0.59          1.220        0.000
  HS02004817           JUNCTION        1.25          1.740        0.000
  HS02004824           JUNCTION        0.44          1.310        0.000
  HS02004830           JUNCTION        0.42          1.330        0.000
  HS02004837           JUNCTION        0.37          1.340        0.000
  HS02004842           JUNCTION        0.51          1.520        0.000
  HS02004848           JUNCTION        0.34          1.370        0.000
  HS02004852           JUNCTION        0.36          1.420        0.000
  HS02004856           JUNCTION        0.35          1.300        0.000
  HS02004862           JUNCTION        0.39          1.300        0.000
  HS02004870           JUNCTION        0.41          1.400        0.000
  HS02004876           JUNCTION        0.49          1.411        0.149
  HS02004881           JUNCTION        0.47          1.126        0.324
  HS02004901           JUNCTION        0.50          0.720        0.000
  WS02004401           JUNCTION        1.57          0.807        0.853
  WS02004402           JUNCTION        1.59          0.753        0.987
  WS02004403           JUNCTION        1.60          0.689        1.341
  WS02004404           JUNCTION        1.82          0.742        2.038
  WS02004405           JUNCTION        1.75          0.657        2.143
  WS02004406           JUNCTION        1.71          0.541        1.909
  WS02004409           JUNCTION        1.03          0.360        2.000
  WS02004410           JUNCTION        0.94          0.278        2.262
  WS02004411           JUNCTION        0.81          0.188        2.342
  WS02004412           JUNCTION        0.72          0.093        2.217
  WS02004413           JUNCTION        1.34          0.138        2.062
  WS02006109           JUNCTION        2.73          1.820        0.000
  WS02006110           JUNCTION        2.10          1.465        0.385
  WS02006111           JUNCTION        1.25          0.871        0.999
  WS02006112           JUNCTION        2.40          1.301        0.379
  WS02006113           JUNCTION        1.29          0.986        0.944
  WS02006115           JUNCTION        1.48          0.879        1.371
  WS02006116           JUNCTION        1.49          0.828        1.462
  WS02006228           JUNCTION        2.69          2.200        0.000
  WS02006229           JUNCTION        0.89          1.070        0.000
  WS02006230           JUNCTION        1.86          1.570        0.000
  WS02006231           JUNCTION        2.06          1.510        0.020
  WS02006232           JUNCTION        2.72          1.480        0.000
  WS02006234           JUNCTION        2.43          1.240        0.000
  WS02006235           JUNCTION        2.48          1.290        0.000
  WS02006238           JUNCTION        2.57          1.323        0.107
  WS02006239           JUNCTION        2.48          1.167        0.123
  WS02006240           JUNCTION        2.48          1.390        0.000
  WS02006242           JUNCTION        2.73          0.820        0.000
  WS02006243           JUNCTION        2.50          0.770        0.000
  WS02006245           JUNCTION        2.49          0.623        0.227
  WS02006247           JUNCTION        2.53          0.583        0.177
  WS02006248           JUNCTION        2.45          0.380        0.000
  WS02006249           JUNCTION        2.50          0.390        0.000
  WS02006251           JUNCTION        2.22          1.154        0.026
  WS02006252           JUNCTION        3.32          1.100        0.000
  WS02006253           JUNCTION        2.28          1.964        0.516
  WS02006256           JUNCTION        7.60          2.050        0.000
  WS02006280           JUNCTION        0.71          0.680        0.100
  WS02006284           JUNCTION        0.62          0.653        0.147
  WS02006287           JUNCTION        0.53          0.731        0.159
  YS02001580           JUNCTION        0.52          0.450        0.000
  YS02001583           JUNCTION        0.53          0.375        0.125
  YS02001586           JUNCTION        0.68          0.510        0.000
  YS02001590           JUNCTION        0.76          0.750        0.000
  YS02001593           JUNCTION        0.76          0.674        0.166
  YS02001596           JUNCTION        0.88          0.927        0.143
  YS02001600           JUNCTION        1.05          1.186        0.004
  YS02001601           JUNCTION        1.43          1.440        0.000
  YS02001602           JUNCTION        1.33          1.270        0.000
  YS02001605           JUNCTION        1.27          1.180        0.000
  YS02001607           JUNCTION        0.74          0.656        0.024
  YS02001610           JUNCTION        0.77          0.680        0.000
  YS02001613           JUNCTION        0.73          0.684        0.016
  YS02001616           JUNCTION        0.69          0.610        0.000
  YS02001619           JUNCTION        0.67          0.610        0.000
  YS02001622           JUNCTION        0.67          0.591        0.029
  YS02001625           JUNCTION        0.86          0.780        0.000
  YS02001629           JUNCTION        0.62          0.470        0.000
  YS02001633           JUNCTION        0.89          0.981        0.079
  YS02001641           JUNCTION        0.83          0.973        0.127
  YS02001644           JUNCTION        0.80          0.920        0.000
  YS02001647           JUNCTION        0.58          0.752        0.148
  YS02001649           JUNCTION        0.70          0.962        0.088
  YS02001652           JUNCTION        0.49          0.838        0.292
  YS02001655           JUNCTION        0.34          0.780        0.420
  YS02001658           JUNCTION        0.13          0.733        0.567
  YS02001661           JUNCTION        0.01          0.277        1.113
  YS02001748           JUNCTION        0.03          0.662        0.528
  YS02001751           JUNCTION        0.21          0.713        0.487
  YS02001754           JUNCTION        0.39          0.740        0.410
  YS02001757           JUNCTION        0.77          1.022        0.188
  YS02001759           JUNCTION        0.66          0.975        0.235
  YS02001762           JUNCTION        0.63          0.967        0.183
  YS02001765           JUNCTION        0.58          0.939        0.161
  YS02001767           JUNCTION        0.54          0.917        0.113
  YS02001770           JUNCTION        0.52          0.908        0.012
  YS02001774           JUNCTION        0.61          0.991        0.059
  YS02001779           JUNCTION        0.39          0.680        0.000
  YS02001783           JUNCTION        0.48          0.490        1.110
  YS02001784           JUNCTION        0.46          0.355        1.135
  YS02001786           JUNCTION        0.35          0.096        1.334
  YS02001882           JUNCTION        0.42          0.685        0.145
  YS02001884           JUNCTION        0.43          0.713        0.157
  YS02001887           JUNCTION        0.47          0.778        0.172
  YS02001890           JUNCTION        0.48          0.760        0.000
  YS02001895           JUNCTION        0.41          0.566        0.184
  YS02001898           JUNCTION        0.41          0.539        0.201
  YS02001901           JUNCTION        0.45          0.679        0.191
  YS02001904           JUNCTION        0.44          0.641        0.209
  YS02001907           JUNCTION        0.71          0.950        0.000
  YS02001910           JUNCTION        0.51          0.958        0.142
  YS02001915           JUNCTION        0.42          0.902        0.098
  YS02001918           JUNCTION        0.33          0.810        0.000
  YS02001920           JUNCTION        0.35          1.118        0.022
  YS02001923           JUNCTION        0.01          0.820        0.000
  YS02001926           JUNCTION        0.02          0.900        0.000
  YS02001929           JUNCTION        0.01          0.780        0.000
  YS02006553           JUNCTION        0.73          0.990        0.200
  YS02006556           JUNCTION        0.61          0.898        0.452
  YS02006558           JUNCTION        0.60          0.884        0.516
  YS02006561           JUNCTION        0.30          0.217        0.933
  YS02163301           JUNCTION        0.87          0.913        0.117
  YS02163601           JUNCTION        0.92          1.027        0.053
  YS02164001           JUNCTION        0.83          0.947        0.153
  YSB1154              JUNCTION        0.83          1.191        0.209
  YSB1171              JUNCTION        0.83          1.100        0.000
  YSB1174              JUNCTION        0.73          1.088        0.162
  YSB6556              JUNCTION        0.66          1.043        0.057
  
  
  *********************
  Node Flooding Summary
  *********************
  
  Flooding refers to all water that overflows a node, whether it ponds or not.
  --------------------------------------------------------------------------
                                                             Total   Maximum
                                 Maximum   Time of Max       Flood    Ponded
                        Hours       Rate    Occurrence      Volume     Depth
  Node                 Flooded       LPS   days hr:min    10^6 ltr    Meters
  --------------------------------------------------------------------------
  HS02004770              0.29    623.60      0  02:02       0.361     0.000
  HS02004777              0.01     54.72      0  01:56       0.000     0.000
  HS02004785              0.01    106.74      0  01:56       0.000     0.000
  HS02004788              0.01    231.55      0  01:56       0.001     0.000
  HS02004792              0.30   1007.10      0  02:02       0.627     0.000
  HS02004799              0.12    105.41      0  02:01       0.025     0.000
  HS02004807              0.01     15.97      0  01:58       0.000     0.000
  HS02004817              0.01      7.88      0  01:58       0.000     0.000
  HS02004824              0.01      8.17      0  01:58       0.000     0.000
  HS02004830              0.01     18.58      0  01:58       0.000     0.000
  HS02004837              0.01     19.99      0  01:58       0.000     0.000
  HS02004842              0.01    139.82      0  01:59       0.001     0.000
  HS02004848              0.01    154.56      0  01:58       0.000     0.000
  HS02004852              0.01    106.38      0  01:58       0.000     0.000
  HS02004856              0.01    306.08      0  01:58       0.001     0.000
  HS02004862              0.01    140.63      0  01:58       0.001     0.000
  HS02004870              0.01    246.58      0  01:58       0.001     0.000
  HS02004901              0.37    523.44      0  02:03       0.499     0.000
  WS02006109              0.36    226.77      0  02:02       0.173     0.000
  WS02006228              0.01      0.25      0  02:03       0.000     0.000
  WS02006229              0.01      1.43      0  02:03       0.000     0.000
  WS02006230              0.63    557.45      0  02:03       0.814     0.000
  WS02006232              0.14      1.29      0  02:02       0.000     0.000
  WS02006234              0.70    128.52      0  02:23       0.202     0.000
  WS02006235              0.01     11.16      0  02:35       0.000     0.000
  WS02006240              0.01     77.62      0  04:10       0.000     0.000
  WS02006242              0.79    137.71      0  02:03       0.335     0.000
  WS02006243              0.01     48.94      0  04:10       0.000     0.000
  WS02006248              1.22    340.36      0  01:54       1.216     0.000
  WS02006249              1.99   1281.44      0  01:59       4.050     0.000
  WS02006252              0.41    493.61      0  01:59       0.364     0.000
  WS02006256              0.81    294.32      0  02:20       0.492     0.000
  YS02001580              0.01     92.44      0  01:56       0.000     0.000
  YS02001586              0.38    199.23      0  02:05       0.151     0.000
  YS02001590              0.01      0.28      0  02:03       0.000     0.000
  YS02001601              0.60    855.83      0  02:03       0.974     0.000
  YS02001602              0.49     61.95      0  02:17       0.097     0.000
  YS02001605              0.01      0.04      0  02:03       0.000     0.000
  YS02001610              0.41    411.47      0  02:05       0.353     0.000
  YS02001616              0.01      1.17      0  02:23       0.000     0.000
  YS02001625              0.39   1037.58      0  02:05       0.705     0.000
  YS02001629              0.06    111.94      0  02:01       0.014     0.000
  YS02001644              0.09    390.43      0  02:01       0.073     0.000
  YS02001779              0.05    248.95      0  01:59       0.008     0.000
  YS02001890              0.09     86.74      0  02:01       0.017     0.000
  YS02001907              0.27   1173.07      0  02:03       0.649     0.000
  YS02001918              0.01    123.63      0  01:59       0.001     0.000
  YS02001923              0.01     39.04      0  01:59       0.000     0.000
  YS02001926              0.01     60.21      0  01:59       0.000     0.000
  YS02001929              0.01    252.71      0  01:59       0.001     0.000
  YSB1171                 0.20    571.96      0  02:03       0.247     0.000
  
  
  **********************
  Storage Volume Summary
  **********************
  
  --------------------------------------------------------------------------------------------------
                         Average     Avg  Evap Exfil       Maximum     Max    Time of Max    Maximum
                          Volume    Pcnt  Pcnt  Pcnt        Volume    Pcnt     Occurrence    Outflow
  Storage Unit           1000 m3    Full  Loss  Loss       1000 m3    Full    days hr:min        LPS
  --------------------------------------------------------------------------------------------------
  CC-storage               2.284      36     0     0         4.511      70       0  02:28    1783.53
  JK-storage               0.069      24     0     0         0.212      73       0  02:20    2300.00
  XR-storage               0.948      66     0     0         1.111      77       0  08:00     380.00
  
  
  ***********************
  Outfall Loading Summary
  ***********************
  
  -----------------------------------------------------------
                         Flow       Avg       Max       Total
                         Freq      Flow      Flow      Volume
  Outfall Node           Pcnt       LPS       LPS    10^6 ltr
  -----------------------------------------------------------
  CC-1                  16.87    683.00    683.00       3.182
  CC-2                  12.54    683.00    683.00       2.369
  JK-1                   7.32   1000.00   1000.00       1.940
  JK-2                   4.37   1000.00   1000.00       1.192
  WSC                   99.96    628.66   1485.17      16.342
  -----------------------------------------------------------
  System                28.21   3994.66   4851.05      25.025
  
  
  ********************
  Link Flow Summary
  ********************
  
  -----------------------------------------------------------------------------
                                 Maximum  Time of Max   Maximum    Max/    Max/
                                  |Flow|   Occurrence   |Veloc|    Full    Full
  Link                 Type          LPS  days hr:min     m/sec    Flow   Depth
  -----------------------------------------------------------------------------
  1                    CONDUIT   1485.17     0  02:07      3.69    0.52    0.51
  HS02004478WS02006287 CONDUIT   2271.87     0  02:01      2.61    0.64    1.00
  HS02004479HS02004480 CONDUIT    447.55     0  01:58      0.64    0.43    1.00
  HS02004480HS02004478 CONDUIT   2114.15     0  01:57      3.02    8.90    1.00
  HS02004770HS02004777 CONDUIT    749.65     0  01:56      1.07    1.37    1.00
  HS02004777HS02004785 CONDUIT    768.99     0  01:56      1.15    0.95    1.00
  HS02004785HS02004788 CONDUIT    627.66     0  01:56      1.35    4.73    1.00
  HS02004788HS02004792 CONDUIT    810.33     0  02:18      1.44    0.54    1.00
  HS02004792HS02004799 CONDUIT   1570.69     0  01:57      2.24    0.96    1.00
  HS02004799HS02004480 CONDUIT   1738.57     0  01:57      2.48    2.20    1.00
  HS02004802HS02004478 CONDUIT    926.37     0  02:03      1.32    0.82    1.00
  HS02004807HS02004802 CONDUIT    926.99     0  02:03      1.32    1.77    1.00
  HS02004817HS02004807 CONDUIT    586.44     0  02:03      0.84    0.35    1.00
  HS02004817HS02004824 CONDUIT    585.69     0  02:03      0.84    0.26    1.00
  HS02004824HS02004830 CONDUIT    656.55     0  01:57      0.95    0.86    1.00
  HS02004830HS02004837 CONDUIT    656.43     0  01:57      1.03    0.65    1.00
  HS02004837HS02004842 CONDUIT    845.63     0  01:57      1.21    0.50    1.00
  HS02004842HS02004848 CONDUIT    844.27     0  01:57      1.35    0.49    1.00
  HS02004848HS02004852 CONDUIT   1052.14     0  01:58      1.62    1.19    1.00
  HS02004852HS02004856 CONDUIT   1004.87     0  01:58      1.49    1.15    1.00
  HS02004856HS02004862 CONDUIT   1091.68     0  01:58      1.71    1.09    1.00
  HS02004862HS02004870 CONDUIT   1112.60     0  01:58      1.80    1.20    1.00
  HS02004870HS02004876 CONDUIT   1175.46     0  01:59      1.68    0.78    1.00
  HS02004876HS02004881 CONDUIT   1321.23     0  01:59      2.13   14.05    1.00
  HS02004881HS02006253 CONDUIT   1407.27     0  01:59      2.40    0.28    1.00
  HS02004901HS02004770 CONDUIT    265.76     0  02:13      0.38    1.00    1.00
  WS02001211WS02001212 CONDUIT    207.43     0  03:00      0.54    0.16    0.69
  WS02001212WS02001213 CONDUIT    210.52     0  02:40      1.04    0.32    0.55
  WS02001213WS02003059 CONDUIT    213.86     0  02:40      0.47    0.35    0.89
  WS02003059WS02003060 CONDUIT    218.71     0  03:12      0.65    0.14    0.81
  WS02003060WS02003069 CONDUIT   1483.06     0  02:06      2.08    0.58    0.60
  WS02003066WSF200     CONDUIT   1279.04     0  02:02      3.25    0.22    0.38
  WS02003067WS02003066 CONDUIT   1279.15     0  02:02      1.98    0.41    0.56
  WS02003069WS02003072 CONDUIT   1483.24     0  02:06      1.88    0.71    0.66
  WS02003072WS02003073 CONDUIT   1483.15     0  02:07      2.04    3.20    0.61
  WS02004138WS02004139 CONDUIT    190.00     0  00:32      2.17    0.04    0.41
  WS02004139WS02001211 CONDUIT    196.37     0  03:00      0.54    0.25    0.60
  WS02004401WS02004402 CONDUIT   1278.99     0  02:01      1.63    1.54    1.00
  WS02004402WS02004403 CONDUIT   1278.97     0  02:01      1.63    1.84    1.00
  WS02004403WS02004404 CONDUIT   1279.35     0  02:01      1.63    0.92    1.00
  WS02004404WS02004405 CONDUIT   1279.40     0  02:01      1.63   12.53    1.00
  WS02004405WS02004406 CONDUIT   1279.10     0  02:03      1.63    2.52    1.00
  WS02004406WS02004407 CONDUIT   1279.30     0  02:03      1.71    0.57    0.94
  WS02004407WS02004409 CONDUIT   1279.30     0  02:02      1.82    0.45    0.94
  WS02004409WS02004410 CONDUIT   1279.35     0  02:02      1.63    1.65    1.00
  WS02004410WS02004411 CONDUIT   1279.25     0  02:03      1.63    1.75    1.00
  WS02004411WS02004412 CONDUIT   1279.13     0  02:03      1.63    1.82    1.00
  WS02004412WS02004413 CONDUIT   1279.01     0  02:02      1.63    0.86    1.00
  WS02004413WS02003067 CONDUIT   1279.06     0  02:03      1.99    0.55    0.76
  WS02006109WS02006110 CONDUIT   1122.96     0  02:18      2.23    2.16    1.00
  WS02006110WS02006113 CONDUIT   1123.16     0  02:18      2.23    1.02    1.00
  WS02006111WS02006112 CONDUIT   1123.72     0  02:18      2.24    0.53    1.00
  WS02006112WS02006115 CONDUIT   1278.67     0  02:01      1.63    0.75    1.00
  WS02006113WS02006111 CONDUIT   1123.42     0  02:18      2.65    1.35    1.00
  WS02006115WS02006116 CONDUIT   1278.85     0  02:01      1.63    1.64    1.00
  WS02006116WS02004401 CONDUIT   1278.99     0  02:02      1.63    1.76    1.00
  WS02006228WS02006109 CONDUIT   1272.22     0  02:03      2.53    5.56    1.00
  WS02006229WS02006228 CONDUIT   1272.01     0  02:03      2.53    4.21    1.00
  WS02006230WS02006229 CONDUIT   1000.17     0  02:03      2.60   22.26    1.00
  WS02006231WS02006230 CONDUIT    564.69     0  03:55      1.52    8.57    1.00
  WS02006232WS02006231 CONDUIT    563.43     0  03:55      1.46    1.18    1.00
  WS02006234WS02006232 CONDUIT    562.09     0  03:55      1.46    1.14    1.00
  WS02006235WS02006234 CONDUIT    557.88     0  03:55      1.45    5.89    1.00
  WS02006238WS02006235 CONDUIT    425.62     0  03:37      1.45    0.95    1.00
  WS02006239WS02006238 CONDUIT    426.32     0  03:37      1.12    1.36    1.00
  WS02006240WS02006239 CONDUIT    426.75     0  03:37      1.26    1.34    1.00
  WS02006242WS02006240 CONDUIT    426.95     0  03:37      1.14    1.70    1.00
  WS02006243WS02006242 CONDUIT    426.99     0  03:37      1.34    0.91    1.00
  WS02006245WS02006243 CONDUIT    426.96     0  03:37      1.39    1.26    1.00
  WS02006247WS02006245 CONDUIT    426.86     0  03:37      1.37    3.38    1.00
  WS02006248WS02006247 CONDUIT    427.68     0  03:42      1.38    0.93    1.00
  WS02006249WS02006248 CONDUIT    431.15     0  03:42      1.38    2.36    1.00
  WS02006251WS02006249 CONDUIT   1342.98     0  01:59      3.49    3.87    1.00
  WS02006252WS02006251 CONDUIT    406.91     0  01:53     25.24    1.49    1.00
  WS02006253WS02006251 CONDUIT   1432.48     0  01:59      3.72    4.30    1.00
  WS02006256WS02006235 CONDUIT    288.93     0  00:00      4.23    3.06    1.00
  WS02006280WS02006229 CONDUIT   2271.87     0  02:02      4.17    0.48    1.00
  WS02006284WS02006280 CONDUIT   2271.33     0  02:03      2.96    0.95    1.00
  WS02006287WS02006284 CONDUIT   2271.29     0  02:03      2.89    1.05    1.00
  WSF200WS02003060     CONDUIT   1278.79     0  02:03      2.29    0.28    0.50
  YS02001580YS02001583 CONDUIT    114.03     0  01:55      0.65    0.44    1.00
  YS02001583YS02001586 CONDUIT    156.92     0  01:55      0.66    0.24    1.00
  YS02001586YS02001590 CONDUIT    317.97     0  02:00      1.25    0.56    1.00
  YS02001590YS02001593 CONDUIT    318.07     0  02:00      1.12    2.00    1.00
  YS02001593YS02001596 CONDUIT    318.10     0  02:16      1.73    0.50    1.00
  YS02001596YS02001600 CONDUIT    317.98     0  02:00      1.22    0.62    1.00
  YS02001600YS02001601 CONDUIT    317.97     0  02:02      1.12    0.55    1.00
  YS02001601YS02001602 CONDUIT    516.35     0  01:55      1.83    1.87    1.00
  YS02001602YS02001605 CONDUIT    515.77     0  01:55      1.82   10.91    1.00
  YS02001605YS02001607 CONDUIT    515.31     0  01:55      1.82    2.83    1.00
  YS02001607YS02001610 CONDUIT    516.62     0  01:54      0.66    0.49    1.00
  YS02001610YS02001613 CONDUIT    516.28     0  01:54      0.66    0.60    1.00
  YS02001613YS02001616 CONDUIT    513.78     0  01:55      0.66    0.44    1.00
  YS02001616YS02001619 CONDUIT    502.19     0  01:55      0.67    0.87    1.00
  YS02001619YS02001622 CONDUIT    921.04     0  01:58      1.18    1.36    1.00
  YS02001622YS02001625 CONDUIT    921.31     0  01:58      1.17    0.49    1.00
  YS02001625YS02001629 CONDUIT    921.88     0  01:58      1.17    0.44    1.00
  YS02001629YS02163301 CONDUIT    923.12     0  01:58      1.18    1.14    1.00
  YS02001633YS02163601 CONDUIT   1372.01     0  01:58      1.75    1.44    1.00
  YS02001641YS02001644 CONDUIT   1374.67     0  01:58      1.75    4.44    1.00
  YS02001644YS02001647 CONDUIT   1788.12     0  01:58      2.28    1.05    1.00
  YS02001647YS02001649 CONDUIT   1788.33     0  01:58      2.34    0.94    1.00
  YS02001649YS02001757 CONDUIT   1994.12     0  01:58      2.54    1.21    1.00
  YS02001652YS02001649 CONDUIT    735.39     0  02:02      0.94    0.36    1.00
  YS02001655YS02001652 CONDUIT    734.12     0  02:02      1.32    0.36    1.00
  YS02001658YS02001655 CONDUIT    732.82     0  02:02      1.89    0.31    1.00
  YS02001661YS02001658 CONDUIT    730.95     0  02:02      2.31    0.29    1.00
  YS02001664YS02001661 CONDUIT    771.57     0  02:01      2.32    0.24    0.77
  YS02001745YS02001748 CONDUIT    597.51     0  02:00      2.19    0.23    0.89
  YS02001748YS02001751 CONDUIT    472.18     0  02:01      1.69    0.24    1.00
  YS02001751YS02001754 CONDUIT    470.62     0  02:01      1.44    0.23    1.00
  YS02001754YS02001757 CONDUIT    471.04     0  02:01      0.60    0.19    1.00
  YS02001757CaochengTiaoxuchi CONDUIT   3282.84     0  02:01      4.18    1.42    1.00
  YS02001759YS02001757 CONDUIT   1283.97     0  02:03      1.63    0.91    1.00
  YS02001762YS02001759 CONDUIT    750.50     0  02:03      0.96    0.86    1.00
  YS02001765YS02001762 CONDUIT    750.22     0  02:03      0.96    0.70    1.00
  YS02001767YS02001765 CONDUIT    750.35     0  02:03      0.96    0.94    1.00
  YS02001770YS02001767 CONDUIT    750.05     0  02:03      0.95    2.97    1.00
  YS02001774YS02001770 CONDUIT    320.47     0  01:59      0.41    0.20    1.00
  YS02001779YS02001774 CONDUIT    324.46     0  01:59      0.42    0.16    1.00
  YS02001783YS02001784 CONDUIT   1156.27     0  02:00      2.30    1.59    1.00
  YS02001784YS02001785 CONDUIT   1157.37     0  02:00      2.30    2.69    1.00
  YS02001786YS02001788 CONDUIT   1157.59     0  02:00      2.47    2.23    0.89
  YS02001788YS02001790 CONDUIT   1169.26     0  02:00      2.70    0.86    0.84
  YS02001790YS02001791 CONDUIT   1289.00     0  02:03      3.43    1.40    0.70
  YS02001791YS02001793 CONDUIT   1242.71     0  02:00      6.75    0.53    0.44
  YS02001793JiankangQianchi CONDUIT   1236.32     0  02:04      2.48    0.10    0.64
  YS02001882YS02001884 CONDUIT     44.06     0  01:57      0.13    0.05    1.00
  YS02001884YS02001887 CONDUIT     82.01     0  01:56      0.10    0.11    1.00
  YS02001887YS02001890 CONDUIT    590.97     0  02:01      0.75    1.01    1.00
  YS02001890YS02001895 CONDUIT    516.23     0  02:03      0.66    0.24    1.00
  YS02001895YS02001898 CONDUIT    515.67     0  02:04      0.66    0.89    1.00
  YS02001898YS02001901 CONDUIT    515.65     0  02:04      0.66    0.33    1.00
  YS02001901YS02001904 CONDUIT    515.55     0  02:04      0.66    0.80    1.00
  YS02001904YS02001907 CONDUIT    516.10     0  02:03      0.66    0.18    1.00
  YS02001907YS02006553 CONDUIT    795.25     0  02:17      0.88    0.94    1.00
  YS02001910YS02001907 CONDUIT   1048.36     0  02:03      1.33    0.59    1.00
  YS02001915YS02001910 CONDUIT   1048.61     0  02:03      1.34    0.52    1.00
  YS02001918YS02001915 CONDUIT    449.08     0  02:00      0.57    0.25    1.00
  YS02001920YS02001918 CONDUIT    447.36     0  02:00      0.65    0.43    1.00
  YS02001923YS02001920 CONDUIT    444.78     0  02:00      0.70    0.20    1.00
  YS02001926YS02001923 CONDUIT    418.01     0  02:00      0.95    0.60    1.00
  YS02001929YS02001926 CONDUIT    416.29     0  02:00      1.13    0.20    1.00
  YS02006553YS02006556 CONDUIT    795.11     0  02:17      1.01    0.68    1.00
  YS02006556YS02006558 CONDUIT    796.89     0  02:17      1.01    0.63    1.00
  YS02006558YS02006561 CONDUIT   1156.33     0  02:00      4.09    2.56    1.00
  YS02006561YS02001783 CONDUIT   1156.01     0  02:01      2.30    0.60    1.00
  YS02163301YS02001633 CONDUIT    922.65     0  01:58      1.17    0.87    1.00
  YS02163601YS02164001 CONDUIT   1372.88     0  01:58      1.75    1.22    1.00
  YS02164001YS02001641 CONDUIT   1373.68     0  01:58      1.75    1.88    1.00
  YSB1154YSB6556       CONDUIT    317.43     0  02:02      0.82    0.57    1.00
  YSB1171HS02004479    CONDUIT    448.20     0  01:58      0.89    0.30    1.00
  YSB1174YSB1171       CONDUIT    277.50     0  02:02      0.72    0.43    1.00
  YSB6556YSB1171       CONDUIT    317.91     0  02:03      0.83    0.33    1.00
  CC-R1                PUMP       683.00     0  00:00              1.00
  CC-R2                PUMP       683.00     0  00:00              1.00
  CC-S1                PUMP       200.00     0  00:00              1.00
  CC-S2                PUMP       200.00     0  00:00              1.00
  JK-R1                PUMP      1000.00     0  00:00              1.00
  JK-R2                PUMP      1000.00     0  00:00              1.00
  JK-S                 PUMP       300.00     0  00:00              1.00
  XR-1                 PUMP        95.00     0  00:00              1.00
  XR-2                 PUMP        95.00     0  00:00              1.00
  XR-3                 PUMP        95.00     0  00:00              1.00
  XR-4                 PUMP        95.00     0  00:00              1.00
  
  
  ***************************
  Flow Classification Summary
  ***************************
  
  -------------------------------------------------------------------------------------
                      Adjusted    ---------- Fraction of Time in Flow Class ---------- 
                       /Actual         Up    Down  Sub   Sup   Up    Down  Norm  Inlet 
  Conduit               Length    Dry  Dry   Dry   Crit  Crit  Crit  Crit  Ltd   Ctrl  
  -------------------------------------------------------------------------------------
  1                       1.00   0.00  0.00  0.00  0.00  1.00  0.00  0.00  0.47  0.00
  HS02004478WS02006287    1.00   0.12  0.00  0.00  0.63  0.24  0.00  0.00  0.60  0.00
  HS02004479HS02004480    1.00   0.04  0.00  0.00  0.96  0.00  0.00  0.00  0.11  0.00
  HS02004480HS02004478    1.00   0.11  0.00  0.00  0.59  0.00  0.00  0.30  0.00  0.00
  HS02004770HS02004777    1.00   0.00  0.11  0.00  0.89  0.00  0.00  0.00  0.03  0.00
  HS02004777HS02004785    1.00   0.00  0.00  0.00  1.00  0.00  0.00  0.00  0.12  0.00
  HS02004785HS02004788    1.00   0.00  0.00  0.00  1.00  0.00  0.00  0.00  0.00  0.00
  HS02004788HS02004792    1.00   0.00  0.00  0.00  1.00  0.00  0.00  0.00  0.91  0.00
  HS02004792HS02004799    1.00   0.00  0.00  0.00  0.99  0.01  0.00  0.00  0.86  0.00
  HS02004799HS02004480    1.00   0.00  0.04  0.00  0.88  0.00  0.08  0.00  0.00  0.00
  HS02004802HS02004478    1.00   0.11  0.00  0.00  0.89  0.00  0.00  0.00  0.02  0.00
  HS02004807HS02004802    1.00   0.11  0.00  0.00  0.88  0.00  0.00  0.01  0.00  0.00
  HS02004817HS02004807    1.00   0.00  0.11  0.00  0.89  0.00  0.00  0.00  0.01  0.00
  HS02004817HS02004824    1.00   0.00  0.00  0.00  1.00  0.00  0.00  0.00  0.81  0.00
  HS02004824HS02004830    1.00   0.00  0.00  0.00  1.00  0.00  0.00  0.00  0.01  0.00
  HS02004830HS02004837    1.00   0.00  0.00  0.00  1.00  0.00  0.00  0.00  0.89  0.00
  HS02004837HS02004842    1.00   0.00  0.00  0.00  1.00  0.00  0.00  0.00  0.11  0.00
  HS02004842HS02004848    1.00   0.00  0.11  0.00  0.89  0.00  0.00  0.00  0.56  0.00
  HS02004848HS02004852    1.00   0.11  0.00  0.00  0.89  0.00  0.00  0.00  0.71  0.00
  HS02004852HS02004856    1.00   0.11  0.00  0.00  0.89  0.00  0.00  0.00  0.67  0.00
  HS02004856HS02004862    1.00   0.00  0.12  0.00  0.88  0.00  0.00  0.00  0.75  0.00
  HS02004862HS02004870    1.00   0.00  0.00  0.00  1.00  0.00  0.00  0.00  0.03  0.00
  HS02004870HS02004876    1.00   0.00  0.00  0.00  0.98  0.01  0.00  0.00  0.86  0.00
  HS02004876HS02004881    1.00   0.01  0.00  0.00  0.80  0.18  0.00  0.00  0.00  0.00
  HS02004881HS02006253    1.00   0.01  0.05  0.00  0.70  0.01  0.00  0.23  0.42  0.00
  HS02004901HS02004770    1.00   0.11  0.00  0.00  0.89  0.00  0.00  0.00  0.00  0.00
  WS02001211WS02001212    1.00   0.00  0.02  0.00  0.98  0.00  0.00  0.00  0.00  0.00
  WS02001212WS02001213    1.00   0.02  0.00  0.00  0.67  0.00  0.31  0.00  0.00  0.00
  WS02001213WS02003059    1.00   0.00  0.00  0.00  1.00  0.00  0.00  0.00  0.00  0.00
  WS02003059WS02003060    1.00   0.00  0.00  0.00  1.00  0.00  0.00  0.00  0.03  0.00
  WS02003060WS02003069    1.00   0.00  0.00  0.00  0.98  0.02  0.00  0.00  0.40  0.00
  WS02003066WSF200        1.00   0.07  0.00  0.00  0.00  0.93  0.00  0.00  0.63  0.00
  WS02003067WS02003066    1.00   0.06  0.01  0.00  0.93  0.00  0.00  0.00  0.00  0.00
  WS02003069WS02003072    1.00   0.00  0.00  0.00  1.00  0.00  0.00  0.00  0.44  0.00
  WS02003072WS02003073    1.00   0.00  0.00  0.00  0.00  0.00  0.00  1.00  0.00  0.00
  WS02004138WS02004139    1.00   0.00  0.00  0.00  0.98  0.01  0.00  0.01  0.98  0.00
  WS02004139WS02001211    1.00   0.00  0.00  0.00  1.00  0.00  0.00  0.00  0.00  0.00
  WS02004401WS02004402    1.00   0.02  0.00  0.00  0.98  0.00  0.00  0.00  0.00  0.00
  WS02004402WS02004403    1.00   0.02  0.00  0.00  0.98  0.00  0.00  0.00  0.00  0.00
  WS02004403WS02004404    1.00   0.00  0.02  0.00  0.98  0.00  0.00  0.00  0.00  0.00
  WS02004404WS02004405    1.00   0.00  0.00  0.00  1.00  0.00  0.00  0.00  0.01  0.00
  WS02004405WS02004406    1.00   0.00  0.00  0.00  1.00  0.00  0.00  0.00  0.00  0.00
  WS02004406WS02004407    1.00   0.00  0.04  0.00  0.96  0.00  0.00  0.00  0.00  0.00
  WS02004407WS02004409    1.00   0.04  0.00  0.00  0.95  0.02  0.00  0.00  0.83  0.00
  WS02004409WS02004410    1.00   0.04  0.00  0.00  0.96  0.00  0.00  0.00  0.00  0.00
  WS02004410WS02004411    1.00   0.04  0.00  0.00  0.96  0.00  0.00  0.00  0.00  0.00
  WS02004411WS02004412    1.00   0.04  0.00  0.00  0.96  0.00  0.00  0.00  0.00  0.00
  WS02004412WS02004413    1.00   0.05  0.00  0.00  0.95  0.00  0.00  0.00  0.00  0.00
  WS02004413WS02003067    1.00   0.05  0.01  0.00  0.00  0.00  0.94  0.00  0.00  0.00
  WS02006109WS02006110    1.00   0.00  0.00  0.00  0.99  0.00  0.01  0.00  0.00  0.00
  WS02006110WS02006113    1.00   0.01  0.01  0.00  0.99  0.00  0.00  0.00  0.00  0.00
  WS02006111WS02006112    1.00   0.01  0.00  0.00  0.98  0.00  0.00  0.00  0.76  0.00
  WS02006112WS02006115    1.00   0.01  0.00  0.00  0.98  0.00  0.00  0.00  0.00  0.00
  WS02006113WS02006111    1.00   0.01  0.00  0.00  0.20  0.79  0.00  0.00  0.12  0.00
  WS02006115WS02006116    1.00   0.02  0.00  0.00  0.98  0.00  0.00  0.01  0.00  0.00
  WS02006116WS02004401    1.00   0.02  0.00  0.00  0.98  0.00  0.00  0.00  0.00  0.00
  WS02006228WS02006109    1.00   0.00  0.00  0.00  1.00  0.00  0.00  0.00  0.00  0.00
  WS02006229WS02006228    1.00   0.00  0.00  0.00  0.99  0.00  0.00  0.00  0.01  0.00
  WS02006230WS02006229    1.00   0.00  0.00  0.00  0.99  0.00  0.00  0.01  0.02  0.00
  WS02006231WS02006230    1.00   0.00  0.00  0.00  0.65  0.00  0.35  0.00  0.00  0.00
  WS02006232WS02006231    1.00   0.00  0.00  0.00  1.00  0.00  0.00  0.00  0.00  0.00
  WS02006234WS02006232    1.00   0.00  0.00  0.00  1.00  0.00  0.00  0.00  0.01  0.00
  WS02006235WS02006234    1.00   0.00  0.00  0.00  0.97  0.00  0.03  0.00  0.00  0.00
  WS02006238WS02006235    1.00   0.00  0.00  0.00  1.00  0.00  0.00  0.00  0.00  0.00
  WS02006239WS02006238    1.00   0.00  0.00  0.00  1.00  0.00  0.00  0.00  0.07  0.00
  WS02006240WS02006239    1.00   0.00  0.00  0.00  0.86  0.00  0.00  0.14  0.02  0.00
  WS02006242WS02006240    1.00   0.00  0.00  0.00  0.98  0.00  0.02  0.00  0.00  0.00
  WS02006243WS02006242    1.00   0.00  0.00  0.00  0.99  0.00  0.00  0.01  0.41  0.00
  WS02006245WS02006243    1.00   0.00  0.00  0.00  0.95  0.00  0.00  0.05  0.00  0.00
  WS02006247WS02006245    1.00   0.00  0.00  0.00  0.99  0.00  0.00  0.01  0.00  0.00
  WS02006248WS02006247    1.00   0.00  0.00  0.00  1.00  0.00  0.00  0.00  0.40  0.00
  WS02006249WS02006248    1.00   0.00  0.00  0.00  0.80  0.00  0.20  0.00  0.00  0.00
  WS02006251WS02006249    1.00   0.00  0.00  0.00  1.00  0.00  0.00  0.00  0.39  0.00
  WS02006252WS02006251    1.00   0.01  0.18  0.00  0.31  0.00  0.51  0.00  0.00  0.00
  WS02006253WS02006251    1.00   0.00  0.00  0.00  1.00  0.00  0.00  0.00  0.01  0.00
  WS02006256WS02006235    1.00   0.00  0.00  0.00  0.99  0.01  0.00  0.00  0.00  0.00
  WS02006280WS02006229    1.00   0.11  0.00  0.00  0.16  0.04  0.00  0.69  0.01  0.00
  WS02006284WS02006280    1.00   0.11  0.00  0.00  0.10  0.02  0.00  0.76  0.00  0.00
  WS02006287WS02006284    1.00   0.10  0.02  0.00  0.53  0.35  0.00  0.00  0.66  0.00
  WSF200WS02003060        1.00   0.00  0.07  0.00  0.41  0.51  0.00  0.00  0.42  0.00
  YS02001580YS02001583    1.00   0.23  0.56  0.00  0.20  0.00  0.00  0.00  0.67  0.00
  YS02001583YS02001586    1.00   0.25  0.49  0.00  0.26  0.00  0.00  0.00  0.67  0.00
  YS02001586YS02001590    1.00   0.11  0.00  0.00  0.54  0.08  0.00  0.27  0.37  0.00
  YS02001590YS02001593    1.00   0.11  0.00  0.00  0.12  0.00  0.77  0.00  0.00  0.00
  YS02001593YS02001596    1.00   0.11  0.00  0.00  0.14  0.01  0.00  0.73  0.02  0.00
  YS02001596YS02001600    1.00   0.11  0.00  0.00  0.24  0.01  0.00  0.64  0.05  0.00
  YS02001600YS02001601    1.00   0.11  0.00  0.00  0.89  0.00  0.00  0.00  0.60  0.00
  YS02001601YS02001602    1.00   0.11  0.00  0.00  0.89  0.00  0.00  0.00  0.00  0.00
  YS02001602YS02001605    1.00   0.11  0.00  0.00  0.89  0.00  0.00  0.00  0.00  0.00
  YS02001605YS02001607    1.00   0.11  0.00  0.00  0.89  0.00  0.00  0.00  0.00  0.00
  YS02001607YS02001610    1.00   0.11  0.00  0.00  0.89  0.00  0.00  0.00  0.01  0.00
  YS02001610YS02001613    1.00   0.11  0.00  0.00  0.89  0.00  0.00  0.00  0.00  0.00
  YS02001613YS02001616    1.00   0.11  0.00  0.00  0.89  0.00  0.00  0.00  0.00  0.00
  YS02001616YS02001619    1.00   0.11  0.00  0.00  0.89  0.00  0.00  0.00  0.00  0.00
  YS02001619YS02001622    1.00   0.11  0.00  0.00  0.89  0.00  0.00  0.00  0.29  0.00
  YS02001622YS02001625    1.00   0.11  0.00  0.00  0.89  0.00  0.00  0.00  0.04  0.00
  YS02001625YS02001629    1.00   0.11  0.02  0.00  0.17  0.00  0.70  0.00  0.00  0.00
  YS02001629YS02163301    1.00   0.12  0.00  0.00  0.88  0.00  0.00  0.00  0.00  0.00
  YS02001633YS02163601    1.00   0.00  0.00  0.00  1.00  0.00  0.00  0.00  0.15  0.00
  YS02001641YS02001644    1.00   0.00  0.00  0.00  1.00  0.00  0.00  0.00  0.00  0.00
  YS02001644YS02001647    1.00   0.00  0.12  0.00  0.87  0.00  0.00  0.00  0.00  0.00
  YS02001647YS02001649    1.00   0.00  0.12  0.00  0.43  0.45  0.00  0.00  0.55  0.00
  YS02001649YS02001757    1.00   0.00  0.00  0.00  0.70  0.30  0.00  0.00  0.40  0.00
  YS02001652YS02001649    1.00   0.00  0.00  0.00  0.98  0.02  0.00  0.00  0.73  0.00
  YS02001655YS02001652    1.00   0.00  0.00  0.00  0.20  0.02  0.00  0.78  0.06  0.00
  YS02001658YS02001655    1.00   0.00  0.12  0.00  0.64  0.25  0.00  0.00  0.69  0.00
  YS02001661YS02001658    1.00   0.11  0.00  0.00  0.40  0.49  0.00  0.00  0.70  0.00
  YS02001664YS02001661    1.00   0.11  0.00  0.00  0.74  0.15  0.00  0.00  0.86  0.00
  YS02001745YS02001748    1.00   0.00  0.00  0.00  0.10  0.01  0.00  0.89  0.05  0.00
  YS02001748YS02001751    1.00   0.00  0.00  0.00  0.78  0.22  0.00  0.00  0.77  0.00
  YS02001751YS02001754    1.00   0.00  0.00  0.00  0.17  0.01  0.00  0.82  0.04  0.00
  YS02001754YS02001757    1.00   0.00  0.00  0.00  1.00  0.00  0.00  0.00  0.80  0.00
  YS02001757CaochengTiaoxuchi    1.00   0.00  0.00  0.00  0.97  0.03  0.00  0.00  0.66  0.00
  YS02001759YS02001757    1.00   0.00  0.00  0.00  1.00  0.00  0.00  0.00  0.54  0.00
  YS02001762YS02001759    1.00   0.00  0.00  0.00  1.00  0.00  0.00  0.00  0.05  0.00
  YS02001765YS02001762    1.00   0.00  0.00  0.00  1.00  0.00  0.00  0.00  0.65  0.00
  YS02001767YS02001765    1.00   0.00  0.00  0.00  1.00  0.00  0.00  0.00  0.01  0.00
  YS02001770YS02001767    1.00   0.00  0.00  0.00  1.00  0.00  0.00  0.00  0.00  0.00
  YS02001774YS02001770    1.00   0.00  0.11  0.00  0.81  0.00  0.07  0.00  0.03  0.00
  YS02001779YS02001774    1.00   0.00  0.00  0.00  1.00  0.00  0.00  0.00  0.77  0.00
  YS02001783YS02001784    1.00   0.00  0.13  0.00  0.87  0.00  0.00  0.00  0.55  0.00
  YS02001784YS02001785    1.00   0.00  0.00  0.00  1.00  0.00  0.00  0.00  0.17  0.00
  YS02001786YS02001788    1.00   0.00  0.00  0.00  0.73  0.27  0.00  0.00  0.00  0.00
  YS02001788YS02001790    1.00   0.00  0.00  0.00  0.18  0.82  0.00  0.00  0.80  0.00
  YS02001790YS02001791    1.00   0.00  0.00  0.00  0.01  0.99  0.00  0.00  0.17  0.00
  YS02001791YS02001793    1.00   0.00  0.00  0.00  0.00  1.00  0.00  0.00  0.01  0.00
  YS02001793JiankangQianchi    1.00   0.00  0.00  0.00  0.98  0.02  0.00  0.00  0.96  0.00
  YS02001882YS02001884    1.00   0.12  0.00  0.00  0.88  0.00  0.00  0.00  0.00  0.00
  YS02001884YS02001887    1.00   0.08  0.03  0.00  0.89  0.00  0.00  0.00  0.00  0.00
  YS02001887YS02001890    1.00   0.00  0.00  0.00  0.97  0.00  0.02  0.00  0.00  0.00
  YS02001890YS02001895    1.00   0.00  0.12  0.00  0.88  0.00  0.00  0.00  0.00  0.00
  YS02001895YS02001898    1.00   0.12  0.00  0.00  0.86  0.00  0.02  0.00  0.00  0.00
  YS02001898YS02001901    1.00   0.12  0.00  0.00  0.88  0.00  0.00  0.00  0.01  0.00
  YS02001901YS02001904    1.00   0.12  0.00  0.00  0.88  0.00  0.00  0.00  0.00  0.00
  YS02001904YS02001907    1.00   0.00  0.12  0.00  0.88  0.00  0.00  0.00  0.00  0.00
  YS02001907YS02006553    1.00   0.00  0.02  0.00  0.98  0.00  0.00  0.00  0.00  0.00
  YS02001910YS02001907    1.00   0.00  0.00  0.00  0.97  0.00  0.00  0.02  0.12  0.00
  YS02001915YS02001910    1.00   0.00  0.00  0.00  0.98  0.02  0.00  0.00  0.16  0.00
  YS02001918YS02001915    1.00   0.00  0.00  0.00  0.98  0.02  0.00  0.00  0.75  0.00
  YS02001920YS02001918    1.00   0.00  0.00  0.00  1.00  0.00  0.00  0.00  0.00  0.00
  YS02001923YS02001920    1.00   0.00  0.00  0.00  1.00  0.00  0.00  0.00  0.93  0.00
  YS02001926YS02001923    1.00   0.00  0.09  0.00  0.05  0.00  0.86  0.00  0.00  0.00
  YS02001929YS02001926    1.00   0.00  0.11  0.00  0.89  0.00  0.00  0.00  0.83  0.00
  YS02006553YS02006556    1.00   0.01  0.00  0.00  0.99  0.00  0.00  0.00  0.03  0.00
  YS02006556YS02006558    1.00   0.00  0.00  0.00  1.00  0.00  0.00  0.00  0.00  0.00
  YS02006558YS02006561    1.00   0.13  0.00  0.00  0.05  0.82  0.00  0.00  0.19  0.00
  YS02006561YS02001783    1.00   0.13  0.00  0.00  0.08  0.79  0.00  0.00  0.69  0.00
  YS02163301YS02001633    1.00   0.00  0.12  0.00  0.88  0.00  0.00  0.00  0.00  0.00
  YS02163601YS02164001    1.00   0.00  0.09  0.00  0.91  0.00  0.00  0.00  0.00  0.00
  YS02164001YS02001641    1.00   0.00  0.09  0.00  0.91  0.00  0.00  0.00  0.05  0.00
  YSB1154YSB6556          1.00   0.11  0.00  0.00  0.89  0.00  0.00  0.00  0.02  0.00
  YSB1171HS02004479       1.00   0.05  0.00  0.00  0.93  0.01  0.00  0.02  0.10  0.00
  YSB1174YSB1171          1.00   0.06  0.04  0.00  0.90  0.00  0.00  0.00  0.00  0.00
  YSB6556YSB1171          1.00   0.05  0.06  0.00  0.89  0.00  0.00  0.00  0.00  0.00
  
  
  *************************
  Conduit Surcharge Summary
  *************************
  
  ----------------------------------------------------------------------------
                                                           Hours        Hours 
                         --------- Hours Full --------   Above Full   Capacity
  Conduit                Both Ends  Upstream  Dnstream   Normal Flow   Limited
  ----------------------------------------------------------------------------
  HS02004478WS02006287        0.42      0.42      0.60      0.01         0.01
  HS02004479HS02004480        0.60      0.60      0.62      0.01         0.01
  HS02004480HS02004478        0.53      0.59      0.53      1.69         0.53
  HS02004770HS02004777        0.50      0.50      0.50      0.11         0.07
  HS02004777HS02004785        0.45      0.45      0.50      0.01         0.01
  HS02004785HS02004788        0.44      0.45      0.44      1.46         0.42
  HS02004788HS02004792        0.44      0.44      0.56      0.01         0.01
  HS02004792HS02004799        0.56      0.56      0.69      0.01         0.01
  HS02004799HS02004480        0.59      0.59      0.69      0.79         0.01
  HS02004802HS02004478        0.54      0.54      0.61      0.01         0.01
  HS02004807HS02004802        0.59      0.59      0.60      0.18         0.18
  HS02004817HS02004807        0.59      0.59      1.25      0.01         0.01
  HS02004817HS02004824        0.44      0.44      1.25      0.01         0.01
  HS02004824HS02004830        0.42      0.42      0.44      0.01         0.01
  HS02004830HS02004837        0.37      0.37      0.42      0.01         0.01
  HS02004837HS02004842        0.37      0.37      0.51      0.01         0.01
  HS02004842HS02004848        0.34      0.34      0.51      0.01         0.01
  HS02004848HS02004852        0.34      0.34      0.36      0.02         0.01
  HS02004852HS02004856        0.36      0.36      0.39      0.01         0.01
  HS02004856HS02004862        0.35      0.35      0.39      0.01         0.01
  HS02004862HS02004870        0.39      0.39      0.41      0.01         0.04
  HS02004870HS02004876        0.41      0.41      0.49      0.01         0.01
  HS02004876HS02004881        0.47      0.49      0.47      1.48         0.46
  HS02004881HS02006253        0.47      0.47      2.28      0.01         0.01
  HS02004901HS02004770        0.50      0.50      0.50      0.01         0.01
  WS02003072WS02003073        0.01      0.01      0.01      4.02         0.01
  WS02004401WS02004402        1.57      1.57      1.59      1.40         1.39
  WS02004402WS02004403        1.59      1.59      1.60      1.56         1.55
  WS02004403WS02004404        1.60      1.60      1.82      0.01         0.01
  WS02004404WS02004405        1.75      1.82      1.75      4.74         1.75
  WS02004405WS02004406        1.71      1.75      1.71      2.23         1.71
  WS02004406WS02004407        0.01      0.01      1.71      0.01         0.01
  WS02004407WS02004409        0.01      0.01      1.03      0.01         0.01
  WS02004409WS02004410        0.94      1.03      0.94      1.46         0.94
  WS02004410WS02004411        0.81      0.94      0.81      1.52         0.81
  WS02004411WS02004412        0.72      0.81      0.72      1.55         0.72
  WS02004412WS02004413        0.72      0.72      1.34      0.01         0.01
  WS02004413WS02003067        0.01      0.01      1.34      0.01         0.01
  WS02006109WS02006110        2.10      2.10      3.06      2.14         0.01
  WS02006110WS02006113        1.29      1.29      2.91      0.31         0.01
  WS02006111WS02006112        1.25      1.25      3.90      0.01         0.01
  WS02006112WS02006115        1.48      1.48      2.40      0.01         0.01
  WS02006113WS02006111        1.27      1.29      1.27      1.38         1.26
  WS02006115WS02006116        1.49      1.49      1.49      1.46         1.45
  WS02006116WS02004401        1.56      1.56      1.57      1.52         1.51
  WS02006228WS02006109        2.73      3.06      2.73      4.28         2.73
  WS02006229WS02006228        2.69      2.79      2.69      3.86         2.69
  WS02006230WS02006229        3.35      3.72      3.35      4.70         2.30
  WS02006231WS02006230        1.86      1.86      2.09      4.44         0.98
  WS02006232WS02006231        2.05      2.05      2.72      0.09         0.15
  WS02006234WS02006232        2.46      2.47      2.72      0.07         0.08
  WS02006235WS02006234        2.42      2.42      2.48      4.30         0.96
  WS02006238WS02006235        2.50      2.50      2.70      0.01         0.31
  WS02006239WS02006238        2.55      2.64      2.57      2.56         1.01
  WS02006240WS02006239        2.47      2.51      2.48      2.47         0.94
  WS02006242WS02006240        2.48      2.48      2.93      3.18         0.83
  WS02006243WS02006242        2.53      2.53      2.73      0.01         0.03
  WS02006245WS02006243        2.49      2.51      2.50      1.60         0.92
  WS02006247WS02006245        2.49      2.56      2.49      4.08         1.26
  WS02006248WS02006247        2.48      2.48      2.53      0.01         0.04
  WS02006249WS02006248        2.45      2.45      2.50      2.97         0.01
  WS02006251WS02006249        2.48      2.50      2.50      3.15         2.43
  WS02006252WS02006251        3.28      3.28      3.31      2.81         0.01
  WS02006253WS02006251        2.49      2.49      2.53      0.73         0.02
  WS02006256WS02006235        4.53      4.59      7.55      0.49         0.01
  WS02006280WS02006229        0.72      0.72      0.89      0.01         0.01
  WS02006284WS02006280        0.62      0.62      0.71      0.01         0.01
  WS02006287WS02006284        0.53      0.53      0.63      0.22         0.22
  YS02001580YS02001583        0.52      0.52      0.58      0.01         0.01
  YS02001583YS02001586        0.53      0.53      0.68      0.01         0.01
  YS02001586YS02001590        0.68      0.68      0.76      0.01         0.01
  YS02001590YS02001593        0.76      0.76      0.78      0.80         0.01
  YS02001593YS02001596        0.77      0.77      0.88      0.01         0.01
  YS02001596YS02001600        0.93      0.93      1.05      0.01         0.01
  YS02001600YS02001601        1.12      1.12      1.43      0.01         0.01
  YS02001601YS02001602        1.33      1.33      1.47      1.06         0.01
  YS02001602YS02001605        1.27      1.27      1.33      2.25         0.01
  YS02001605YS02001607        1.21      1.27      1.21      1.40         1.21
  YS02001607YS02001610        0.74      0.74      0.77      0.01         0.01
  YS02001610YS02001613        0.73      0.73      0.77      0.01         0.01
  YS02001613YS02001616        0.69      0.69      0.73      0.01         0.01
  YS02001616YS02001619        0.67      0.67      0.69      0.01         0.01
  YS02001619YS02001622        0.67      0.67      0.67      0.77         0.64
  YS02001622YS02001625        0.67      0.67      0.86      0.01         0.01
  YS02001625YS02001629        0.62      0.62      0.86      0.01         0.01
  YS02001629YS02163301        0.86      0.86      0.87      0.09         0.17
  YS02001633YS02163601        0.89      0.89      0.92      0.37         0.37
  YS02001641YS02001644        0.80      0.83      0.80      1.51         0.79
  YS02001644YS02001647        0.58      0.58      0.80      0.03         0.01
  YS02001647YS02001649        0.58      0.58      0.70      0.01         0.01
  YS02001649YS02001757        0.70      0.70      0.77      0.08         0.05
  YS02001652YS02001649        0.52      0.52      0.70      0.01         0.01
  YS02001655YS02001652        0.34      0.34      0.49      0.01         0.01
  YS02001658YS02001655        0.13      0.13      0.34      0.01         0.01
  YS02001661YS02001658        0.01      0.01      0.13      0.01         0.01
  YS02001664YS02001661        0.01      0.01      0.01      0.01         0.01
  YS02001745YS02001748        0.01      0.01      0.03      0.01         0.01
  YS02001748YS02001751        0.11      0.11      0.21      0.01         0.01
  YS02001751YS02001754        0.21      0.21      0.39      0.01         0.01
  YS02001754YS02001757        0.43      0.43      0.77      0.01         0.01
  YS02001757CaochengTiaoxuchi        0.76      0.77      1.94      0.31         0.27
  YS02001759YS02001757        0.66      0.66      0.77      0.01         0.01
  YS02001762YS02001759        0.63      0.63      0.66      0.01         0.02
  YS02001765YS02001762        0.58      0.58      0.63      0.01         0.01
  YS02001767YS02001765        0.54      0.54      0.58      0.01         0.02
  YS02001770YS02001767        0.54      0.54      0.54      0.49         0.38
  YS02001774YS02001770        0.52      0.52      0.61      0.01         0.01
  YS02001779YS02001774        0.39      0.39      0.61      0.01         0.01
  YS02001783YS02001784        0.46      0.48      0.46      0.63         0.46
  YS02001784YS02001785        0.35      0.46      0.35      0.90         0.35
  YS02001786YS02001788        0.01      0.35      0.01      0.75         0.01
  YS02001790YS02001791        0.01      0.01      0.01      0.44         0.01
  YS02001793JiankangQianchi        0.01      0.01      6.92      0.01         0.01
  YS02001882YS02001884        0.42      0.42      0.43      0.01         0.01
  YS02001884YS02001887        0.46      0.46      0.47      0.01         0.01
  YS02001887YS02001890        0.48      0.48      0.49      0.02         0.01
  YS02001890YS02001895        0.41      0.41      0.51      0.01         0.01
  YS02001895YS02001898        0.41      0.41      0.41      0.01         0.01
  YS02001898YS02001901        0.42      0.42      0.45      0.01         0.01
  YS02001901YS02001904        0.44      0.44      0.45      0.01         0.01
  YS02001904YS02001907        0.44      0.44      0.73      0.01         0.01
  YS02001907YS02006553        0.91      0.91      0.99      0.01         0.01
  YS02001910YS02001907        0.51      0.51      0.71      0.01         0.01
  YS02001915YS02001910        0.42      0.42      0.51      0.01         0.01
  YS02001918YS02001915        0.33      0.33      0.42      0.01         0.01
  YS02001920YS02001918        0.33      0.33      0.35      0.01         0.01
  YS02001923YS02001920        0.29      0.29      0.35      0.01         0.01
  YS02001926YS02001923        0.01      0.01      0.02      0.01         0.01
  YS02001929YS02001926        0.01      0.01      0.02      0.01         0.01
  YS02006553YS02006556        0.61      0.61      0.73      0.01         0.01
  YS02006556YS02006558        0.67      0.67      0.74      0.01         0.01
  YS02006558YS02006561        0.37      0.60      0.37      0.84         0.37
  YS02006561YS02001783        0.30      0.30      0.48      0.01         0.01
  YS02163301YS02001633        0.87      0.87      0.91      0.01         0.01
  YS02163601YS02164001        0.83      0.83      0.92      0.07         0.01
  YS02164001YS02001641        0.83      0.83      0.83      0.75         0.66
  YSB1154YSB6556              0.66      0.66      0.83      0.01         0.01
  YSB1171HS02004479           0.56      0.56      0.83      0.01         0.01
  YSB1174YSB1171              0.73      0.73      1.12      0.01         0.01
  YSB6556YSB1171              0.66      0.66      1.33      0.01         0.01
  
  
  ***************
  Pumping Summary
  ***************
  
  ---------------------------------------------------------------------------------------------------------
                                                  Min       Avg       Max     Total     Power    % Time Off
                        Percent   Number of      Flow      Flow      Flow    Volume     Usage    Pump Curve
  Pump                 Utilized   Start-Ups       LPS       LPS       LPS  10^6 ltr     Kw-hr    Low   High
  ---------------------------------------------------------------------------------------------------------
  CC-R1                   16.19           7      0.00    683.00    683.00     3.185     59.88    0.0    7.0
  CC-R2                   12.04           5      0.00    683.00    683.00     2.369     44.84    0.0    9.0
  CC-S1                   46.83          25      0.00    200.00    200.00     2.698     17.96    0.0    0.0
  CC-S2                   45.78          18      0.00    200.00    200.00     2.637     17.70    0.0    0.0
  JK-R1                    6.73          25      0.00   1000.00   1000.00     1.940     19.12    0.0    0.0
  JK-R2                    4.14          22      0.00   1000.00   1000.00     1.192     10.68    0.0    0.0
  JK-S                    10.16          30      0.00    300.00    300.00     0.878     15.02    0.0    0.0
  XR-1                    97.91           2      0.00     95.00     95.00     2.679      9.64    0.0    0.0
  XR-2                    93.95           2      0.00     95.00     95.00     2.570      8.80    0.0    0.0
  XR-3                     0.00           1      0.00     95.00     95.00     0.000      0.00    0.0    0.0
  XR-4                     0.00           1      0.00     95.00     95.00     0.000      0.00    0.0    0.0
  

  Analysis begun on:  Mon Feb 27 13:40:22 2023
  Analysis ended on:  Mon Feb 27 13:40:26 2023
  Total elapsed time: 00:00:04