
  OWA STORM WATER MANAGEMENT MODEL - VERSION v5.1.14 (OWA 2023-01-25)
  --------------------------------------------------------------

  WARNING 04: minimum elevation drop used for Conduit WS02004404WS02004405
  WARNING 03: negative offset ignored for Link YS02001904YS02001907
  
  *********************************************************
  NOTE: The summary statistics displayed in this report are
  based on results found at every computational time step,  
  not just on results from each reporting time step.
  *********************************************************
  
  ****************
  Analysis Options
  ****************
  Flow Units ............... LPS
  Process Models:
    Rainfall/Runoff ........ YES
    RDII ................... NO
    Snowmelt ............... NO
    Groundwater ............ NO
    Flow Routing ........... YES
    Ponding Allowed ........ NO
    Water Quality .......... NO
  Infiltration Method ...... HORTON
  Flow Routing Method ...... DYNWAVE
  Surcharge Method ......... EXTRAN
  Starting Date ............ 08/28/2015 08:00:00
  Ending Date .............. 08/28/2015 16:00:00
  Antecedent Dry Days ...... 8.0
  Report Time Step ......... 00:01:00
  Wet Time Step ............ 00:01:00
  Dry Time Step ............ 00:01:00
  Routing Time Step ........ 30.00 sec
  Variable Time Step ....... YES
  Maximum Trials ........... 8
  Number of Threads ........ 1
  Head Tolerance ........... 0.001500 m
  
  
  **************************        Volume         Depth
  Runoff Quantity Continuity     hectare-m            mm
  **************************     ---------       -------
  Total Precipitation ......         3.478        57.413
  Evaporation Loss .........         0.000         0.000
  Infiltration Loss ........         0.239         3.945
  Surface Runoff ...........         3.179        52.471
  Final Storage ............         0.061         1.006
  Continuity Error (%) .....        -0.018
  
  
  **************************        Volume        Volume
  Flow Routing Continuity        hectare-m      10^6 ltr
  **************************     ---------     ---------
  Dry Weather Inflow .......         0.630         6.296
  Wet Weather Inflow .......         3.179        31.786
  Groundwater Inflow .......         0.000         0.000
  RDII Inflow ..............         0.000         0.000
  External Inflow ..........         0.105         1.045
  External Outflow .........         2.553        25.528
  Flooding Loss ............         1.353        13.528
  Evaporation Loss .........         0.000         0.000
  Exfiltration Loss ........         0.000         0.000
  Initial Stored Volume ....         0.303         3.031
  Final Stored Volume ......         0.321         3.214
  Continuity Error (%) .....        -0.269
  
  
  *************************
  Highest Continuity Errors
  *************************
  Node YS02001884 (5.17%)
  Node YS02001583 (-4.05%)
  Node WS02006256 (-3.34%)
  Node HS02004842 (1.66%)
  Node YS02001774 (1.43%)
  
  
  ***************************
  Time-Step Critical Elements
  ***************************
  Link WS02006280WS02006229 (42.36%)
  Link WS02006252WS02006251 (15.87%)
  Link WS02006238WS02006235 (12.59%)
  Link WS02004404WS02004405 (7.44%)
  Link YS02001791YS02001793 (7.24%)
  
  
  ********************************
  Highest Flow Instability Indexes
  ********************************
  Link WS02006238WS02006235 (23)
  Link WS02006113WS02006111 (23)
  Link WS02006256WS02006235 (23)
  Link WS02004404WS02004405 (22)
  Link WS02006229WS02006228 (22)
  
  
  *************************
  Routing Time Step Summary
  *************************
  Minimum Time Step           :     0.00 sec
  Average Time Step           :     2.38 sec
  Maximum Time Step           :     6.46 sec
  Percent in Steady State     :    -0.00
  Average Iterations per Step :     3.75
  Percent Not Converging      :    18.39
  
  
  ***************************
  Subcatchment Runoff Summary
  ***************************
  
  ------------------------------------------------------------------------------------------------------------------------------
                            Total      Total      Total      Total     Imperv       Perv      Total       Total     Peak  Runoff
                           Precip      Runon       Evap      Infil     Runoff     Runoff     Runoff      Runoff   Runoff   Coeff
  Subcatchment                 mm         mm         mm         mm         mm         mm         mm    10^6 ltr      LPS
  ------------------------------------------------------------------------------------------------------------------------------
  sub0                      57.41       0.00       0.00       1.00      52.14       3.02      55.16        0.04    29.55   0.961
  sub1                      57.41       0.00       0.00       1.70      49.85       4.61      54.46        0.36   200.71   0.949
  sub10                     57.41       0.00       0.00       1.20      51.54       3.39      54.93        0.61   342.77   0.957
  sub11                     57.41       0.00       0.00       1.18      51.55       3.41      54.96        0.64   379.91   0.957
  sub12                     57.41       0.00       0.00       1.93      48.77       5.54      54.31        0.47   302.14   0.946
  sub14                     57.41       0.00       0.00       1.35      50.99       3.82      54.80        0.52   303.38   0.955
  sub15                     57.41       0.00       0.00       5.26      39.22      11.97      51.19        0.88   464.70   0.892
  sub16                     57.41       0.00       0.00       5.45      37.56      13.50      51.06        0.53   312.26   0.889
  sub17                     57.41       0.00       0.00       5.31      38.11      13.07      51.18        0.44   253.81   0.891
  sub2                      57.41       0.00       0.00       7.47      35.27      13.77      49.04        0.46   205.00   0.854
  sub22                     57.41       0.00       0.00       7.95      31.94      16.74      48.68        3.08  1539.74   0.848
  sub23                     57.41       0.00       0.00       6.50      35.31      14.75      50.06        2.39  1280.72   0.872
  sub3                      57.41       0.00       0.00       8.09      35.23      13.15      48.38        1.09   444.18   0.843
  sub4                      57.41       0.00       0.00       1.89      49.68       4.43      54.11        1.13   494.09   0.942
  sub5                      57.41       0.00       0.00       1.05      52.09       2.97      55.06        0.62   346.46   0.959
  sub60                     57.41       0.00       0.00       1.81      49.32       5.08      54.40        0.71   430.36   0.947
  sub61                     57.41       0.00       0.00       2.62      46.52       7.14      53.66        0.98   596.36   0.935
  sub62                     57.41       0.00       0.00       1.21      51.53       3.39      54.92        1.50   839.78   0.957
  sub63                     57.41       0.00       0.00       4.83      39.79      11.82      51.61        1.17   666.58   0.899
  sub64                     57.41       0.00       0.00       2.44      47.59       6.17      53.76        1.29   684.49   0.936
  sub65                     57.41       0.00       0.00       2.11      48.69       5.35      54.04        1.49   766.46   0.941
  sub66                     57.41       0.00       0.00       5.94      39.69      10.71      50.40        2.35  1000.20   0.878
  sub67                     57.41       0.00       0.00       1.16      51.57       3.43      55.00        1.02   642.25   0.958
  sub68                     57.41       0.00       0.00       2.17      48.18       5.87      54.05        1.49   861.12   0.941
  sub69                     57.41       0.00       0.00       1.93      48.69       6.68      55.37        2.05  1021.47   0.964
  sub7                      57.41       0.00       0.00       1.33      51.00       3.84      54.84        0.18   112.24   0.955
  sub70                     57.41       0.00       0.00       6.37      37.73      13.15      50.87        1.47   563.52   0.886
  sub71                     57.41       0.00       0.00       1.24      51.49       3.36      54.85        1.43   742.97   0.955
  sub72                     57.41       0.00       0.00       1.10      51.99       2.92      54.91        0.75   359.30   0.956
  sub8                      57.41       0.00       0.00       1.35      50.99       3.82      54.81        0.35   206.31   0.955
  sub9                      57.41       0.00       0.00       1.35      50.99       3.82      54.81        0.26   154.20   0.955
  
  
  ******************
  Node Depth Summary
  ******************
  
  ---------------------------------------------------------------------------------
                                 Average  Maximum  Maximum  Time of Max    Reported
                                   Depth    Depth      HGL   Occurrence   Max Depth
  Node                 Type       Meters   Meters   Meters  days hr:min      Meters
  ---------------------------------------------------------------------------------
  HS02004478           JUNCTION     0.23     1.58    10.81     0  01:58        1.56
  HS02004479           JUNCTION     0.31     1.70    10.90     0  01:58        1.67
  HS02004480           JUNCTION     0.28     1.81    11.05     0  02:20        1.81
  HS02004770           JUNCTION     0.28     1.42    11.25     0  01:55        1.42
  HS02004777           JUNCTION     0.30     1.48    11.28     0  01:55        1.47
  HS02004785           JUNCTION     0.20     1.49    11.39     0  01:55        1.49
  HS02004788           JUNCTION     0.16     1.42    11.32     0  01:55        1.33
  HS02004792           JUNCTION     0.22     1.60    11.12     0  01:56        1.60
  HS02004799           JUNCTION     0.34     1.76    10.97     0  01:58        1.76
  HS02004802           JUNCTION     0.33     1.80    10.93     0  01:58        1.75
  HS02004807           JUNCTION     0.30     1.92    11.09     0  01:58        1.83
  HS02004817           JUNCTION     0.60     2.44    11.29     0  01:58        2.21
  HS02004824           JUNCTION     0.17     2.01    11.41     0  01:58        1.71
  HS02004830           JUNCTION     0.17     2.03    11.50     0  01:58        1.65
  HS02004837           JUNCTION     0.14     1.99    11.57     0  01:58        1.55
  HS02004842           JUNCTION     0.43     2.22    11.49     0  01:58        1.86
  HS02004848           JUNCTION     0.12     2.04    11.64     0  01:58        1.53
  HS02004852           JUNCTION     0.12     2.12    11.63     0  01:58        1.57
  HS02004856           JUNCTION     0.18     2.07    11.50     0  01:58        1.64
  HS02004862           JUNCTION     0.14     2.00    11.38     0  01:58        1.61
  HS02004870           JUNCTION     0.13     2.10    11.39     0  01:58        1.60
  HS02004876           JUNCTION     0.19     1.97    11.00     0  01:58        1.73
  HS02004881           JUNCTION     0.12     2.14    11.17     0  01:58        1.52
  HS02004901           JUNCTION     0.29     1.42    11.24     0  01:55        1.42
  WS02001211           JUNCTION     0.63     0.81     5.65     0  02:05        0.81
  WS02001212           JUNCTION     0.38     0.57     5.63     0  02:05        0.57
  WS02001213           JUNCTION     0.59     0.86     5.63     0  02:05        0.86
  WS02003059           JUNCTION     0.66     0.93     5.62     0  02:05        0.93
  WS02003060           JUNCTION     0.38     0.68     5.61     0  02:05        0.68
  WS02003066           JUNCTION     0.23     0.45     6.01     0  02:02        0.45
  WS02003067           JUNCTION     0.55     0.89     6.21     0  02:01        0.89
  WS02003069           JUNCTION     0.43     0.77     5.36     0  02:06        0.77
  WS02003072           JUNCTION     0.49     0.81     5.18     0  02:06        0.81
  WS02003073           JUNCTION     0.29     0.51     4.58     0  02:05        0.51
  WS02004138           JUNCTION     0.13     0.14     7.39     0  00:29        0.14
  WS02004139           JUNCTION     0.57     0.74     5.65     0  02:06        0.74
  WS02004401           JUNCTION     0.78     1.83     7.83     0  02:20        1.82
  WS02004402           JUNCTION     0.79     1.78     7.74     0  02:20        1.76
  WS02004403           JUNCTION     0.79     1.71     7.64     0  02:20        1.69
  WS02004404           JUNCTION     0.85     1.71     7.56     0  02:20        1.70
  WS02004405           JUNCTION     0.84     1.89     7.74     0  02:20        1.89
  WS02004406           JUNCTION     0.83     1.57     7.40     0  02:20        1.57
  WS02004407           JUNCTION     0.27     0.90     7.22     0  02:02        0.90
  WS02004409           JUNCTION     0.54     1.37     7.14     0  02:02        1.36
  WS02004410           JUNCTION     0.55     1.30     7.02     0  02:07        1.30
  WS02004411           JUNCTION     0.55     1.19     6.87     0  02:02        1.19
  WS02004412           JUNCTION     0.55     1.10     6.74     0  02:02        1.09
  WS02004413           JUNCTION     0.69     1.14     6.61     0  02:02        1.14
  WS02006109           JUNCTION     1.00     2.64     9.26     0  01:56        2.64
  WS02006110           JUNCTION     0.93     2.39     8.98     0  02:20        2.37
  WS02006111           JUNCTION     0.44     1.70     8.41     0  02:01        1.69
  WS02006112           JUNCTION     0.99     2.33     8.21     0  02:02        2.33
  WS02006113           JUNCTION     0.51     1.80     8.69     0  02:20        1.79
  WS02006115           JUNCTION     0.70     1.91     8.05     0  02:01        1.91
  WS02006116           JUNCTION     0.77     1.91     7.95     0  02:02        1.91
  WS02006228           JUNCTION     1.07     3.03     9.68     0  01:58        3.02
  WS02006229           JUNCTION     1.08     3.24     9.93     0  01:58        3.21
  WS02006230           JUNCTION     1.01     2.65     9.39     0  01:53        2.65
  WS02006231           JUNCTION     0.74     2.24     9.36     0  02:14        2.24
  WS02006232           JUNCTION     0.83     2.18     9.22     0  01:52        2.18
  WS02006234           JUNCTION     0.72     1.96     9.12     0  01:41        1.96
  WS02006235           JUNCTION     0.73     1.97     9.13     0  02:35        1.95
  WS02006238           JUNCTION     0.75     1.98     9.13     0  02:20        1.94
  WS02006239           JUNCTION     0.69     2.03     9.24     0  01:41        2.03
  WS02006240           JUNCTION     0.64     1.78     9.07     0  02:14        1.78
  WS02006242           JUNCTION     0.68     1.55     8.82     0  01:45        1.55
  WS02006243           JUNCTION     0.57     1.48     8.90     0  03:26        1.48
  WS02006245           JUNCTION     0.55     1.56     9.05     0  03:26        1.56
  WS02006247           JUNCTION     0.56     1.47     8.97     0  03:26        1.47
  WS02006248           JUNCTION     0.51     1.10     8.69     0  01:42        1.10
  WS02006249           JUNCTION     0.53     1.09     8.69     0  01:42        1.09
  WS02006251           JUNCTION     0.63     2.21     9.88     0  01:58        2.09
  WS02006252           JUNCTION     0.42     1.50     9.74     0  00:00        1.50
  WS02006253           JUNCTION     0.70     3.51    11.16     0  01:58        2.81
  WS02006256           JUNCTION     1.08     2.35     9.28     0  00:00        2.35
  WS02006280           JUNCTION     0.31     1.76    10.03     0  01:58        1.72
  WS02006284           JUNCTION     0.56     1.96    10.36     0  01:58        1.92
  WS02006287           JUNCTION     0.30     1.74    10.70     0  01:58        1.70
  WSF200               JUNCTION     0.23     0.52     5.75     0  02:03        0.52
  YS02001580           JUNCTION     0.08     1.05     9.59     0  01:55        0.84
  YS02001583           JUNCTION     0.11     1.14     9.64     0  02:20        1.14
  YS02001586           JUNCTION     0.20     1.13     9.30     0  01:55        1.13
  YS02001590           JUNCTION     0.30     1.39     9.25     0  02:20        1.38
  YS02001593           JUNCTION     0.23     1.32     9.18     0  02:20        1.30
  YS02001596           JUNCTION     0.31     1.69     9.11     0  02:14        1.69
  YS02001600           JUNCTION     0.38     1.87     9.00     0  02:20        1.87
  YS02001601           JUNCTION     0.58     2.06     8.90     0  01:54        2.06
  YS02001602           JUNCTION     0.49     1.87     8.77     0  01:55        1.87
  YS02001605           JUNCTION     0.46     1.78     8.68     0  02:20        1.78
  YS02001607           JUNCTION     0.44     1.68     8.53     0  02:07        1.68
  YS02001610           JUNCTION     0.49     1.68     8.48     0  01:57        1.68
  YS02001613           JUNCTION     0.45     1.66     8.50     0  02:14        1.65
  YS02001616           JUNCTION     0.38     1.60     8.51     0  02:14        1.59
  YS02001619           JUNCTION     0.35     1.58     8.51     0  02:14        1.57
  YS02001622           JUNCTION     0.34     1.62     8.52     0  02:20        1.62
  YS02001625           JUNCTION     0.60     1.78     8.38     0  01:58        1.78
  YS02001629           JUNCTION     0.47     1.85     8.40     0  01:59        1.85
  YS02001633           JUNCTION     0.54     2.01     8.47     0  02:00        1.98
  YS02001641           JUNCTION     0.52     1.95     8.38     0  02:00        1.93
  YS02001644           JUNCTION     0.51     1.92     8.35     0  02:00        1.92
  YS02001647           JUNCTION     0.30     1.77     8.38     0  02:00        1.70
  YS02001649           JUNCTION     0.34     1.97     8.36     0  02:01        1.89
  YS02001652           JUNCTION     0.23     1.86     8.45     0  02:01        1.71
  YS02001655           JUNCTION     0.17     1.96     8.81     0  02:16        1.49
  YS02001658           JUNCTION     0.12     1.78     8.93     0  02:00        1.23
  YS02001661           JUNCTION     0.14     1.39     8.79     0  02:01        1.00
  YS02001664           JUNCTION     0.06     0.58     8.51     0  02:01        0.48
  YS02001745           JUNCTION     0.06     0.77     8.29     0  02:01        0.77
  YS02001748           JUNCTION     0.11     1.80     8.87     0  02:00        1.19
  YS02001751           JUNCTION     0.14     1.77     8.64     0  02:00        1.77
  YS02001754           JUNCTION     0.19     1.79     8.40     0  02:00        1.72
  YS02001757           JUNCTION     0.35     2.02     8.28     0  02:00        1.91
  YS02001759           JUNCTION     0.29     2.21     8.57     0  01:59        2.21
  YS02001762           JUNCTION     0.29     2.15     8.55     0  01:59        2.15
  YS02001765           JUNCTION     0.27     2.10     8.55     0  01:59        2.10
  YS02001767           JUNCTION     0.27     1.92     8.41     0  02:00        1.88
  YS02001770           JUNCTION     0.28     1.95     8.45     0  02:00        1.92
  YS02001774           JUNCTION     0.34     2.00     8.42     0  02:00        1.97
  YS02001779           JUNCTION     0.17     1.68     8.37     0  01:59        1.68
  YS02001783           JUNCTION     0.25     1.40     7.54     0  01:58        1.22
  YS02001784           JUNCTION     0.26     1.21     7.28     0  01:58        1.12
  YS02001786           JUNCTION     0.22     0.96     6.99     0  01:58        0.87
  YS02001788           JUNCTION     0.16     0.62     6.60     0  01:58        0.62
  YS02001790           JUNCTION     0.19     0.72     6.37     0  02:00        0.71
  YS02001791           JUNCTION     0.12     0.44     5.91     0  02:02        0.43
  YS02001793           JUNCTION     0.06     0.29     5.12     0  02:14        0.25
  YS02001882           JUNCTION     0.31     1.72     8.44     0  01:58        1.63
  YS02001884           JUNCTION     0.40     1.81     8.42     0  01:58        1.73
  YS02001887           JUNCTION     0.47     1.85     8.38     0  01:58        1.81
  YS02001890           JUNCTION     0.50     1.81     8.32     0  01:58        1.81
  YS02001895           JUNCTION     0.28     1.57     8.32     0  01:58        1.56
  YS02001898           JUNCTION     0.29     1.61     8.35     0  02:14        1.61
  YS02001901           JUNCTION     0.40     1.69     8.29     0  01:58        1.67
  YS02001904           JUNCTION     0.38     1.65     8.28     0  01:58        1.64
  YS02001907           JUNCTION     0.69     1.96     8.25     0  01:58        1.96
  YS02001910           JUNCTION     0.49     1.98     8.49     0  01:58        1.96
  YS02001915           JUNCTION     0.31     1.94     8.66     0  01:58        1.90
  YS02001918           JUNCTION     0.16     1.81     8.88     0  01:58        1.81
  YS02001920           JUNCTION     0.24     2.14     9.15     0  01:58        2.06
  YS02001923           JUNCTION     0.12     2.03     9.29     0  01:58        2.03
  YS02001926           JUNCTION     0.16     1.90     9.35     0  01:58        1.90
  YS02001929           JUNCTION     0.09     1.78     9.47     0  01:59        1.78
  YS02006553           JUNCTION     0.69     2.00     8.29     0  01:58        1.97
  YS02006556           JUNCTION     0.66     2.01     8.32     0  01:58        1.94
  YS02006558           JUNCTION     0.71     2.05     8.32     0  01:58        1.99
  YS02006561           JUNCTION     0.15     1.12     7.78     0  01:58        0.89
  YS02163301           JUNCTION     0.49     1.94     8.45     0  02:20        1.90
  YS02163601           JUNCTION     0.58     2.03     8.43     0  02:00        2.01
  YS02164001           JUNCTION     0.51     1.95     8.41     0  02:00        1.93
  YSB1154              JUNCTION     0.45     1.88    10.94     0  02:00        1.88
  YSB1171              JUNCTION     0.59     1.95    10.85     0  01:58        1.95
  YSB1174              JUNCTION     0.40     1.79    10.89     0  02:00        1.78
  YSB6556              JUNCTION     0.34     1.73    10.90     0  01:58        1.72
  CC-1                 OUTFALL      0.00     0.00     0.00     0  00:00        0.00
  CC-2                 OUTFALL      0.00     0.00     0.00     0  00:00        0.00
  JK-1                 OUTFALL      0.00     0.00     0.00     0  00:00        0.00
  JK-2                 OUTFALL      0.00     0.00     0.00     0  00:00        0.00
  WSC                  OUTFALL      0.29     0.51     1.18     0  02:06        0.51
  CC-storage           STORAGE      0.75     1.52     7.02     0  02:29        1.52
  JK-storage           STORAGE      1.42     4.22     5.02     0  02:26        4.13
  XR-storage           STORAGE      7.83     9.26     7.26     0  08:00        9.26
  
  
  *******************
  Node Inflow Summary
  *******************
  
  -------------------------------------------------------------------------------------------------
                                  Maximum  Maximum                  Lateral       Total        Flow
                                  Lateral    Total  Time of Max      Inflow      Inflow     Balance
                                   Inflow   Inflow   Occurrence      Volume      Volume       Error
  Node                 Type           LPS      LPS  days hr:min    10^6 ltr    10^6 ltr     Percent
  -------------------------------------------------------------------------------------------------
  HS02004478           JUNCTION      0.00  2287.00     0  02:02           0        8.45      -0.019
  HS02004479           JUNCTION      0.00   467.51     0  01:58           0       0.809       0.160
  HS02004480           JUNCTION      0.00  2106.99     0  01:57           0        6.39       0.041
  HS02004770           JUNCTION   1280.72  1280.72     0  02:02        2.39        2.64       0.114
  HS02004777           JUNCTION      0.03   764.48     0  01:55    0.000864        1.91       0.269
  HS02004785           JUNCTION      0.15   786.62     0  01:55     0.00432        1.91       0.025
  HS02004788           JUNCTION    466.37   828.24     0  01:55       0.928        2.83       0.004
  HS02004792           JUNCTION   1540.02  2305.17     0  02:02        3.08        5.91       0.008
  HS02004799           JUNCTION    303.38  1736.66     0  01:56       0.522        5.66       0.049
  HS02004802           JUNCTION      0.00  1069.36     0  02:02           0        2.11       0.198
  HS02004807           JUNCTION    379.91  1068.93     0  02:02       0.639        2.16       0.212
  HS02004817           JUNCTION      0.60   699.53     0  02:03      0.0173        1.58       1.062
  HS02004824           JUNCTION    494.14   699.24     0  02:03        1.13        1.77       0.029
  HS02004830           JUNCTION      0.15   654.26     0  01:56     0.00432       0.842       0.165
  HS02004837           JUNCTION    349.12   849.14     0  01:56       0.789        1.21       0.068
  HS02004842           JUNCTION      0.00   845.34     0  01:56           0       0.785       1.691
  HS02004848           JUNCTION    444.18  1088.53     0  01:58        1.09         1.7       0.005
  HS02004852           JUNCTION      0.00  1090.48     0  01:58           0        1.55       0.009
  HS02004856           JUNCTION    154.20  1208.74     0  01:58       0.264        1.81       0.043
  HS02004862           JUNCTION    205.20  1227.88     0  01:58       0.463        2.27       0.004
  HS02004870           JUNCTION    206.31  1354.84     0  01:58        0.35        2.62       0.015
  HS02004876           JUNCTION    200.71  1342.75     0  01:58       0.362        2.99       0.040
  HS02004881           JUNCTION    112.24  1448.34     0  02:02       0.185        3.17       0.007
  HS02004901           JUNCTION    312.26   556.02     0  02:03       0.535       0.811       0.216
  WS02001211           JUNCTION      7.35   205.06     0  03:10       0.212        5.44       0.611
  WS02001212           JUNCTION      0.00   209.35     0  03:10           0        5.41       0.290
  WS02001213           JUNCTION      0.00   212.40     0  03:11           0        5.39       0.333
  WS02003059           JUNCTION      0.00   216.43     0  03:11           0        5.38       0.596
  WS02003060           JUNCTION     16.53  1491.02     0  02:05       0.476        14.3       0.104
  WS02003066           JUNCTION      0.00  1288.52     0  02:02           0        8.47       0.018
  WS02003067           JUNCTION      0.00  1288.56     0  02:02           0        8.47       0.053
  WS02003069           JUNCTION      0.32  1491.31     0  02:05     0.00922        14.3       0.110
  WS02003072           JUNCTION      0.00  1491.31     0  02:06           0        14.3       0.148
  WS02003073           JUNCTION      1.82  1493.04     0  02:06      0.0524        14.3       0.154
  WS02004138           JUNCTION      0.00   380.00     0  00:00           0        5.25       0.052
  WS02004139           JUNCTION      0.32   191.00     0  00:29     0.00924        5.26       0.509
  WS02004401           JUNCTION      0.00  1287.96     0  02:01           0        8.58       0.124
  WS02004402           JUNCTION      0.00  1288.15     0  02:02           0        8.57       0.125
  WS02004403           JUNCTION      0.00  1288.02     0  02:02           0        8.56       0.120
  WS02004404           JUNCTION      0.16  1288.42     0  02:02     0.00467        8.55       0.103
  WS02004405           JUNCTION      0.04  1289.26     0  02:01      0.0011        8.54       0.142
  WS02004406           JUNCTION      0.00  1288.27     0  02:01           0        8.53       0.250
  WS02004407           JUNCTION      0.00  1288.17     0  02:02           0        8.51       0.019
  WS02004409           JUNCTION      0.00  1288.14     0  02:02           0        8.51       0.038
  WS02004410           JUNCTION      0.00  1288.51     0  02:02           0         8.5       0.060
  WS02004411           JUNCTION      0.00  1288.61     0  02:02           0         8.5       0.074
  WS02004412           JUNCTION      0.00  1288.61     0  02:02           0        8.49       0.097
  WS02004413           JUNCTION      0.00  1288.50     0  02:02           0        8.48       0.168
  WS02006109           JUNCTION      1.23  1280.84     0  02:02      0.0354        8.39       0.116
  WS02006110           JUNCTION      0.00  1136.96     0  02:20           0        8.18       0.101
  WS02006111           JUNCTION      0.00  1123.62     0  02:19           0        8.17       0.011
  WS02006112           JUNCTION    253.81  1287.92     0  02:02       0.439        8.61       0.224
  WS02006113           JUNCTION      0.00  1129.66     0  02:20           0        8.17       0.027
  WS02006115           JUNCTION      0.00  1287.65     0  02:01           0        8.59       0.085
  WS02006116           JUNCTION      0.00  1287.92     0  02:02           0        8.58       0.060
  WS02006228           JUNCTION      0.00  1279.81     0  02:02           0        8.36       0.064
  WS02006229           JUNCTION      0.00  2287.58     0  02:01           0        10.5       0.085
  WS02006230           JUNCTION     10.28  1017.65     0  02:02       0.296        4.33       0.233
  WS02006231           JUNCTION      0.00   566.64     0  03:45           0        3.19      -0.127
  WS02006232           JUNCTION      0.00   564.41     0  03:45           0        3.18       0.195
  WS02006234           JUNCTION      0.00   553.24     0  03:45           0        3.17      -0.389
  WS02006235           JUNCTION      0.00   531.89     0  03:45           0         3.3       0.433
  WS02006238           JUNCTION      0.00   422.34     0  03:32           0        2.96      -0.103
  WS02006239           JUNCTION      0.00   422.70     0  03:32           0        2.88      -0.191
  WS02006240           JUNCTION      0.00   423.12     0  03:32           0        2.84      -0.007
  WS02006242           JUNCTION      0.00   423.53     0  03:32           0        2.84      -0.004
  WS02006243           JUNCTION      0.00   423.89     0  03:32           0        2.48      -0.087
  WS02006245           JUNCTION      0.00   424.26     0  03:32           0        2.48       0.557
  WS02006247           JUNCTION      0.00   424.49     0  03:32           0        2.48       0.050
  WS02006248           JUNCTION      0.00   425.00     0  03:32           0        2.73      -0.126
  WS02006249           JUNCTION      0.00  1338.22     0  01:58           0         5.8       0.217
  WS02006251           JUNCTION      0.08  1476.75     0  02:02     0.00222        5.89      -0.009
  WS02006252           JUNCTION      0.00   525.22     0  02:03           0        2.98      -0.459
  WS02006253           JUNCTION     29.55  1477.32     0  02:02      0.0447        3.27       0.060
  WS02006256           JUNCTION      0.00   300.00     0  00:00           0        1.16      -3.233
  WS02006280           JUNCTION      0.00  2286.79     0  02:02           0        8.44       0.005
  WS02006284           JUNCTION      0.10  2286.59     0  02:02     0.00275        8.44       0.003
  WS02006287           JUNCTION      0.00  2287.81     0  02:02           0        8.43       0.012
  WSF200               JUNCTION      0.00  1288.50     0  02:02           0        8.46       0.010
  YS02001580           JUNCTION      0.00   106.28     0  01:55           0      0.0042      -1.677
  YS02001583           JUNCTION      0.00   156.37     0  01:55           0      0.0153      -3.896
  YS02001586           JUNCTION    563.52   563.70     0  02:04        1.47        1.48       0.084
  YS02001590           JUNCTION      0.00   325.61     0  02:20           0        1.27      -0.033
  YS02001593           JUNCTION      0.00   320.49     0  02:20           0        1.27       0.009
  YS02001596           JUNCTION      0.00   318.04     0  02:16           0        1.27      -0.002
  YS02001600           JUNCTION      0.00   318.23     0  02:14           0        1.27       0.009
  YS02001601           JUNCTION   1021.47  1338.80     0  02:03        2.05        3.32       0.025
  YS02001602           JUNCTION      0.00   517.14     0  01:54           0        2.24       0.019
  YS02001605           JUNCTION      0.00   516.85     0  01:54           0        2.15       0.023
  YS02001607           JUNCTION      0.00   516.56     0  01:54           0        2.15       0.089
  YS02001610           JUNCTION      0.00   520.07     0  01:54           0         2.2       0.105
  YS02001613           JUNCTION      0.00   519.65     0  01:54           0        1.84       0.089
  YS02001616           JUNCTION      0.00   516.87     0  01:54           0        1.84       0.034
  YS02001619           JUNCTION   1000.20  1000.20     0  02:04        2.35        4.13       0.004
  YS02001622           JUNCTION      0.00   932.51     0  01:57           0        4.07       0.002
  YS02001625           JUNCTION      0.00  1096.54     0  02:04           0        4.13       0.216
  YS02001629           JUNCTION      0.00   930.85     0  01:57           0        3.47       0.026
  YS02001633           JUNCTION    766.66  1400.50     0  01:58        1.49        4.88       0.070
  YS02001641           JUNCTION      0.00  1395.49     0  01:58           0         4.8       0.062
  YS02001644           JUNCTION    684.53  1824.34     0  01:58        1.29        6.09       0.056
  YS02001647           JUNCTION      0.00  1826.32     0  01:58           0           6       0.008
  YS02001649           JUNCTION      0.00  2082.29     0  01:58           0        7.18       0.007
  YS02001652           JUNCTION      0.00   795.41     0  02:02           0        1.18      -0.065
  YS02001655           JUNCTION      0.15   794.36     0  02:02     0.00443        1.18      -0.174
  YS02001658           JUNCTION      0.00   793.30     0  02:02           0        1.17      -0.072
  YS02001661           JUNCTION      0.00   816.64     0  02:01           0        1.17       0.023
  YS02001664           JUNCTION    666.58   666.58     0  02:02        1.17        1.17      -0.007
  YS02001745           JUNCTION    430.36   430.36     0  02:02       0.715       0.715       0.215
  YS02001748           JUNCTION      0.04   624.00     0  02:00      0.0013       0.715      -0.326
  YS02001751           JUNCTION      0.01   503.04     0  02:01    0.000317       0.723       0.066
  YS02001754           JUNCTION      0.26   503.84     0  02:01     0.00749       0.735      -0.197
  YS02001757           JUNCTION      0.00  3461.39     0  02:01           0        10.4       0.054
  YS02001759           JUNCTION    596.40  1375.68     0  02:03       0.986         2.5      -0.011
  YS02001762           JUNCTION      0.00   804.19     0  02:04           0        1.51      -0.018
  YS02001765           JUNCTION      0.00   804.43     0  02:03           0        1.51       0.000
  YS02001767           JUNCTION      0.54   804.07     0  02:03      0.0154        1.51      -0.004
  YS02001770           JUNCTION    839.93   839.93     0  02:02        1.51        1.55      -0.009
  YS02001774           JUNCTION      0.00   381.10     0  01:59           0       0.076       1.449
  YS02001779           JUNCTION      0.01   391.45     0  01:59    0.000144      0.0318      -1.230
  YS02001783           JUNCTION      0.00  1159.26     0  02:01           0        3.92       0.006
  YS02001784           JUNCTION      1.06  1160.31     0  02:01      0.0305        3.95       0.012
  YS02001786           JUNCTION      0.06  1160.44     0  02:01     0.00162        3.95       0.015
  YS02001788           JUNCTION      0.07  1160.47     0  02:01     0.00204        3.95       0.008
  YS02001790           JUNCTION      0.15  1172.90     0  02:01     0.00446        3.96       0.030
  YS02001791           JUNCTION      0.00  1284.67     0  02:00           0        3.96      -0.032
  YS02001793           JUNCTION      0.00  1224.36     0  02:08           0        3.96       0.007
  YS02001882           JUNCTION      0.00    49.72     0  01:56           0      0.0127       5.027
  YS02001884           JUNCTION      0.00    74.87     0  01:56           0      0.0489       5.454
  YS02001887           JUNCTION    642.70   644.88     0  02:01        1.04        1.07       0.417
  YS02001890           JUNCTION      0.00   643.84     0  02:01           0        1.03       0.498
  YS02001895           JUNCTION      0.00   516.98     0  02:04           0       0.991       0.156
  YS02001898           JUNCTION      0.00   516.99     0  02:05           0       0.989       0.014
  YS02001901           JUNCTION      0.00   517.11     0  02:05           0       0.992       0.336
  YS02001904           JUNCTION      0.00   517.20     0  02:04           0       0.996       0.282
  YS02001907           JUNCTION      0.00  1661.43     0  02:03           0        3.26       0.552
  YS02001910           JUNCTION      0.00  1145.82     0  02:03           0        2.27       0.317
  YS02001915           JUNCTION    742.99  1145.62     0  02:03        1.43        2.31       0.068
  YS02001918           JUNCTION      0.00   439.76     0  01:59           0       0.905       0.027
  YS02001920           JUNCTION      2.87   439.30     0  01:59      0.0827       0.888       0.076
  YS02001923           JUNCTION      0.04   414.51     0  01:58     0.00109        0.79      -0.082
  YS02001926           JUNCTION      0.05   599.44     0  01:58      0.0015       0.769      -0.180
  YS02001929           JUNCTION    359.30   376.84     0  01:58       0.755       0.757      -0.050
  YS02006553           JUNCTION      0.00   796.75     0  02:17           0        2.46       0.489
  YS02006556           JUNCTION      0.00   794.89     0  02:17           0        2.46       0.334
  YS02006558           JUNCTION    862.00  1164.43     0  01:58        1.51        3.95       0.091
  YS02006561           JUNCTION      0.00  1166.06     0  01:58           0        3.92       0.000
  YS02163301           JUNCTION      0.00   929.82     0  01:57           0        3.46       0.043
  YS02163601           JUNCTION      0.11  1399.65     0  01:58     0.00317         4.8       0.102
  YS02164001           JUNCTION      0.00  1398.50     0  01:58           0         4.8       0.054
  YSB1154              JUNCTION    346.46   346.46     0  02:02       0.624       0.625       0.244
  YSB1171              JUNCTION      0.00   740.56     0  02:03           0        1.13       0.560
  YSB1174              JUNCTION    302.14   302.14     0  02:01       0.475       0.475       0.295
  YSB6556              JUNCTION      0.00   346.51     0  02:02           0       0.625       0.236
  CC-1                 OUTFALL       0.00   683.00     0  00:00           0        4.58       0.000
  CC-2                 OUTFALL       0.00   683.00     0  00:00           0        3.75       0.000
  JK-1                 OUTFALL       0.00  1000.00     0  00:00           0        1.31       0.000
  JK-2                 OUTFALL       0.00  1000.00     0  00:00           0        1.62       0.000
  WSC                  OUTFALL       0.00  1493.04     0  02:06           0        14.3       0.000
  CC-storage           STORAGE       0.00  3463.56     0  02:01           0        12.6      -0.250
  JK-storage           STORAGE       0.00  1257.38     0  02:04           0        4.11      -0.420
  XR-storage           STORAGE     200.00   200.00     0  00:00        5.76        6.36       0.001
  
  
  **********************
  Node Surcharge Summary
  **********************
  
  Surcharging occurs when water rises above the top of the highest conduit.
  ---------------------------------------------------------------------
                                               Max. Height   Min. Depth
                                   Hours       Above Crown    Below Rim
  Node                 Type      Surcharged         Meters       Meters
  ---------------------------------------------------------------------
  HS02004478           JUNCTION        0.44          0.664        0.276
  HS02004479           JUNCTION        0.58          0.900        0.150
  HS02004480           JUNCTION        0.62          1.100        0.000
  HS02004770           JUNCTION        0.52          0.720        0.000
  HS02004777           JUNCTION        0.53          0.780        0.000
  HS02004785           JUNCTION        0.48          0.790        0.000
  HS02004788           JUNCTION        0.46          0.720        0.000
  HS02004792           JUNCTION        0.59          0.900        0.000
  HS02004799           JUNCTION        0.71          1.060        0.000
  HS02004802           JUNCTION        0.63          1.089        0.121
  HS02004807           JUNCTION        0.61          1.220        0.000
  HS02004817           JUNCTION        1.26          1.740        0.000
  HS02004824           JUNCTION        0.47          1.310        0.000
  HS02004830           JUNCTION        0.44          1.330        0.000
  HS02004837           JUNCTION        0.39          1.290        0.050
  HS02004842           JUNCTION        0.54          1.520        0.000
  HS02004848           JUNCTION        0.36          1.343        0.027
  HS02004852           JUNCTION        0.39          1.420        0.000
  HS02004856           JUNCTION        0.37          1.300        0.000
  HS02004862           JUNCTION        0.41          1.300        0.000
  HS02004870           JUNCTION        0.43          1.400        0.000
  HS02004876           JUNCTION        0.51          1.273        0.287
  HS02004881           JUNCTION        0.49          1.442        0.008
  HS02004901           JUNCTION        0.53          0.720        0.000
  WS02004401           JUNCTION        1.56          0.830        0.830
  WS02004402           JUNCTION        1.60          0.781        0.959
  WS02004403           JUNCTION        1.61          0.709        1.321
  WS02004404           JUNCTION        1.83          0.714        2.066
  WS02004405           JUNCTION        1.79          0.885        1.915
  WS02004406           JUNCTION        1.76          0.566        1.884
  WS02004409           JUNCTION        1.04          0.372        1.988
  WS02004410           JUNCTION        0.95          0.300        2.240
  WS02004411           JUNCTION        0.86          0.194        2.336
  WS02004412           JUNCTION        0.74          0.097        2.213
  WS02004413           JUNCTION        1.35          0.141        2.059
  WS02006109           JUNCTION        2.24          1.820        0.000
  WS02006110           JUNCTION        2.00          1.480        0.370
  WS02006111           JUNCTION        1.27          0.891        0.979
  WS02006112           JUNCTION        2.04          1.332        0.348
  WS02006113           JUNCTION        1.32          0.998        0.932
  WS02006115           JUNCTION        1.47          0.903        1.347
  WS02006116           JUNCTION        1.49          0.850        1.440
  WS02006228           JUNCTION        2.24          2.200        0.000
  WS02006229           JUNCTION        0.91          1.057        0.013
  WS02006230           JUNCTION        1.87          1.570        0.000
  WS02006231           JUNCTION        1.98          1.530        0.000
  WS02006232           JUNCTION        2.19          1.480        0.000
  WS02006234           JUNCTION        1.98          1.240        0.000
  WS02006235           JUNCTION        2.01          1.259        0.031
  WS02006238           JUNCTION        2.08          1.261        0.169
  WS02006239           JUNCTION        1.97          1.290        0.000
  WS02006240           JUNCTION        1.97          1.070        0.320
  WS02006242           JUNCTION        2.04          0.820        0.000
  WS02006243           JUNCTION        1.97          0.770        0.000
  WS02006245           JUNCTION        1.95          0.850        0.000
  WS02006247           JUNCTION        1.95          0.760        0.000
  WS02006248           JUNCTION        1.90          0.380        0.000
  WS02006249           JUNCTION        1.93          0.390        0.000
  WS02006251           JUNCTION        1.84          1.180        0.000
  WS02006252           JUNCTION        2.10          1.100        0.000
  WS02006253           JUNCTION        1.85          2.472        0.008
  WS02006256           JUNCTION        7.03          2.050        0.000
  WS02006280           JUNCTION        0.73          0.710        0.070
  WS02006284           JUNCTION        0.65          0.680        0.120
  WS02006287           JUNCTION        0.55          0.743        0.147
  YS02001580           JUNCTION        0.55          0.450        0.000
  YS02001583           JUNCTION        0.56          0.500        0.000
  YS02001586           JUNCTION        0.69          0.510        0.000
  YS02001590           JUNCTION        0.77          0.741        0.009
  YS02001593           JUNCTION        0.77          0.698        0.142
  YS02001596           JUNCTION        0.89          0.958        0.112
  YS02001600           JUNCTION        1.05          1.190        0.000
  YS02001601           JUNCTION        1.44          1.440        0.000
  YS02001602           JUNCTION        1.34          1.270        0.000
  YS02001605           JUNCTION        1.28          1.180        0.000
  YS02001607           JUNCTION        0.74          0.680        0.000
  YS02001610           JUNCTION        0.77          0.680        0.000
  YS02001613           JUNCTION        0.73          0.657        0.043
  YS02001616           JUNCTION        0.69          0.601        0.009
  YS02001619           JUNCTION        0.67          0.584        0.026
  YS02001622           JUNCTION        0.67          0.620        0.000
  YS02001625           JUNCTION        0.86          0.780        0.000
  YS02001629           JUNCTION        0.62          0.470        0.000
  YS02001633           JUNCTION        0.88          0.992        0.068
  YS02001641           JUNCTION        0.80          0.946        0.154
  YS02001644           JUNCTION        0.76          0.920        0.000
  YS02001647           JUNCTION        0.54          0.766        0.134
  YS02001649           JUNCTION        0.65          0.968        0.082
  YS02001652           JUNCTION        0.45          0.826        0.304
  YS02001655           JUNCTION        0.29          0.957        0.243
  YS02001658           JUNCTION        0.12          0.784        0.516
  YS02001661           JUNCTION        0.01          0.319        1.071
  YS02001748           JUNCTION        0.01          0.717        0.473
  YS02001751           JUNCTION        0.18          0.766        0.434
  YS02001754           JUNCTION        0.33          0.745        0.405
  YS02001757           JUNCTION        0.70          1.020        0.190
  YS02001759           JUNCTION        0.61          1.210        0.000
  YS02001762           JUNCTION        0.57          1.150        0.000
  YS02001765           JUNCTION        0.52          1.100        0.000
  YS02001767           JUNCTION        0.49          0.918        0.112
  YS02001770           JUNCTION        0.46          0.920        0.000
  YS02001774           JUNCTION        0.56          1.003        0.047
  YS02001779           JUNCTION        0.33          0.680        0.000
  YS02001783           JUNCTION        0.50          0.597        1.003
  YS02001784           JUNCTION        0.48          0.410        1.080
  YS02001786           JUNCTION        0.37          0.161        1.269
  YS02001882           JUNCTION        0.45          0.724        0.106
  YS02001884           JUNCTION        0.46          0.746        0.124
  YS02001887           JUNCTION        0.49          0.796        0.154
  YS02001890           JUNCTION        0.51          0.760        0.000
  YS02001895           JUNCTION        0.43          0.572        0.178
  YS02001898           JUNCTION        0.43          0.583        0.157
  YS02001901           JUNCTION        0.48          0.686        0.184
  YS02001904           JUNCTION        0.47          0.650        0.200
  YS02001907           JUNCTION        0.72          0.950        0.000
  YS02001910           JUNCTION        0.53          0.982        0.118
  YS02001915           JUNCTION        0.44          0.938        0.062
  YS02001918           JUNCTION        0.36          0.810        0.000
  YS02001920           JUNCTION        0.37          1.140        0.000
  YS02001923           JUNCTION        0.02          0.820        0.000
  YS02001926           JUNCTION        0.04          0.900        0.000
  YS02001929           JUNCTION        0.01          0.780        0.000
  YS02006553           JUNCTION        0.74          1.003        0.187
  YS02006556           JUNCTION        0.63          0.968        0.382
  YS02006558           JUNCTION        0.62          0.953        0.447
  YS02006561           JUNCTION        0.33          0.322        0.828
  YS02163301           JUNCTION        0.85          0.937        0.093
  YS02163601           JUNCTION        0.90          1.033        0.047
  YS02164001           JUNCTION        0.81          0.949        0.151
  YSB1154              JUNCTION        0.85          1.184        0.216
  YSB1171              JUNCTION        0.85          1.100        0.000
  YSB1174              JUNCTION        0.75          1.086        0.164
  YSB6556              JUNCTION        0.69          1.029        0.071
  
  
  *********************
  Node Flooding Summary
  *********************
  
  Flooding refers to all water that overflows a node, whether it ponds or not.
  --------------------------------------------------------------------------
                                                             Total   Maximum
                                 Maximum   Time of Max       Flood    Ponded
                        Hours       Rate    Occurrence      Volume     Depth
  Node                 Flooded       LPS   days hr:min    10^6 ltr    Meters
  --------------------------------------------------------------------------
  HS02004480              0.01     87.46      0  02:20       0.000     0.000
  HS02004770              0.32    742.53      0  02:02       0.454     0.000
  HS02004777              0.01     36.44      0  01:55       0.000     0.000
  HS02004785              0.01    134.21      0  01:55       0.000     0.000
  HS02004788              0.01    229.73      0  01:55       0.001     0.000
  HS02004792              0.33   1163.04      0  02:02       0.771     0.000
  HS02004799              0.14    157.92      0  02:01       0.042     0.000
  HS02004807              0.01     27.84      0  01:58       0.000     0.000
  HS02004817              0.01     17.06      0  01:58       0.000     0.000
  HS02004824              0.01     20.59      0  01:58       0.000     0.000
  HS02004830              0.01     16.81      0  01:58       0.000     0.000
  HS02004842              0.01     93.77      0  01:58       0.001     0.000
  HS02004852              0.01    216.72      0  01:58       0.001     0.000
  HS02004856              0.01    305.30      0  01:58       0.001     0.000
  HS02004862              0.01     89.96      0  01:58       0.001     0.000
  HS02004870              0.01     69.85      0  01:58       0.000     0.000
  HS02004901              0.40    555.94      0  02:03       0.559     0.000
  WS02006109              0.38    247.40      0  02:02       0.198     0.000
  WS02006228              0.01      1.90      0  01:58       0.000     0.000
  WS02006230              0.66    564.74      0  02:02       0.867     0.000
  WS02006231              0.01      0.40      0  02:20       0.000     0.000
  WS02006232              0.15     10.97      0  02:20       0.000     0.000
  WS02006234              0.71    128.93      0  02:07       0.207     0.000
  WS02006239              0.01      0.31      0  02:20       0.000     0.000
  WS02006242              0.85    137.31      0  02:15       0.359     0.000
  WS02006243              0.01      0.03      0  03:26       0.000     0.000
  WS02006245              0.01      0.10      0  03:26       0.000     0.000
  WS02006247              0.01      0.05      0  03:26       0.000     0.000
  WS02006248              1.25    338.91      0  02:30       1.236     0.000
  WS02006249              1.86   1277.25      0  01:58       4.031     0.000
  WS02006251              0.01     67.89      0  01:58       0.000     0.000
  WS02006252              0.43    525.17      0  02:03       0.379     0.000
  WS02006256              1.07    294.10      0  02:14       0.609     0.000
  YS02001580              0.01     95.32      0  01:55       0.000     0.000
  YS02001583              0.01      0.26      0  02:20       0.000     0.000
  YS02001586              0.42    246.32      0  02:04       0.198     0.000
  YS02001600              0.01      2.00      0  02:20       0.000     0.000
  YS02001601              0.61    940.92      0  02:03       1.075     0.000
  YS02001602              0.48     62.07      0  02:18       0.098     0.000
  YS02001605              0.01      0.26      0  02:20       0.000     0.000
  YS02001607              0.01      0.41      0  02:07       0.000     0.000
  YS02001610              0.41    485.68      0  02:05       0.422     0.000
  YS02001622              0.01      0.57      0  02:20       0.000     0.000
  YS02001625              0.39   1096.50      0  02:04       0.728     0.000
  YS02001629              0.07    147.18      0  02:01       0.022     0.000
  YS02001644              0.09    437.54      0  02:01       0.079     0.000
  YS02001759              0.01     48.05      0  01:59       0.000     0.000
  YS02001762              0.01     75.90      0  01:59       0.000     0.000
  YS02001765              0.01     22.94      0  01:59       0.000     0.000
  YS02001770              0.01      8.88      0  02:00       0.000     0.000
  YS02001779              0.07    313.05      0  01:59       0.013     0.000
  YS02001890              0.12    135.81      0  02:01       0.032     0.000
  YS02001907              0.30   1359.00      0  02:03       0.797     0.000
  YS02001918              0.01    166.64      0  01:59       0.002     0.000
  YS02001920              0.01     56.87      0  01:58       0.000     0.000
  YS02001923              0.01     81.31      0  01:58       0.000     0.000
  YS02001926              0.01    272.74      0  01:58       0.001     0.000
  YS02001929              0.01    142.78      0  01:59       0.001     0.000
  YSB1171                 0.22    739.82      0  02:03       0.345     0.000
  
  
  **********************
  Storage Volume Summary
  **********************
  
  --------------------------------------------------------------------------------------------------
                         Average     Avg  Evap Exfil       Maximum     Max    Time of Max    Maximum
                          Volume    Pcnt  Pcnt  Pcnt        Volume    Pcnt     Occurrence    Outflow
  Storage Unit           1000 m3    Full  Loss  Loss       1000 m3    Full    days hr:min        LPS
  --------------------------------------------------------------------------------------------------
  CC-storage               2.097      33     0     0         4.224      66       0  02:29    1783.53
  JK-storage               0.071      24     0     0         0.212      73       0  02:26    2300.00
  XR-storage               0.940      65     0     0         1.111      77       0  08:00     380.00
  
  
  ***********************
  Outfall Loading Summary
  ***********************
  
  -----------------------------------------------------------
                         Flow       Avg       Max       Total
                         Freq      Flow      Flow      Volume
  Outfall Node           Pcnt       LPS       LPS    10^6 ltr
  -----------------------------------------------------------
  CC-1                  36.29    683.00    683.00       4.579
  CC-2                  29.42    683.00    683.00       3.750
  JK-1                   6.34   1000.00   1000.00       1.311
  JK-2                   8.13   1000.00   1000.00       1.618
  WSC                   99.95    628.08   1493.04      14.270
  -----------------------------------------------------------
  System                36.03   3994.08   4168.87      25.528
  
  
  ********************
  Link Flow Summary
  ********************
  
  -----------------------------------------------------------------------------
                                 Maximum  Time of Max   Maximum    Max/    Max/
                                  |Flow|   Occurrence   |Veloc|    Full    Full
  Link                 Type          LPS  days hr:min     m/sec    Flow   Depth
  -----------------------------------------------------------------------------
  1                    CONDUIT   1493.04     0  02:06      3.69    0.52    0.51
  HS02004478WS02006287 CONDUIT   2287.81     0  02:02      2.61    0.64    1.00
  HS02004479HS02004480 CONDUIT    469.54     0  01:58      0.67    0.45    1.00
  HS02004480HS02004478 CONDUIT   2115.97     0  01:56      3.02    8.91    1.00
  HS02004770HS02004777 CONDUIT    764.45     0  01:55      1.09    1.40    1.00
  HS02004777HS02004785 CONDUIT    786.47     0  01:55      1.18    0.97    1.00
  HS02004785HS02004788 CONDUIT    618.71     0  02:19      1.35    4.66    1.00
  HS02004788HS02004792 CONDUIT    844.96     0  02:20      1.44    0.56    1.00
  HS02004792HS02004799 CONDUIT   1567.09     0  01:56      2.24    0.96    1.00
  HS02004799HS02004480 CONDUIT   1734.89     0  01:56      2.48    2.19    1.00
  HS02004802HS02004478 CONDUIT   1068.72     0  02:02      1.53    0.94    1.00
  HS02004807HS02004802 CONDUIT   1069.36     0  02:02      1.53    2.04    1.00
  HS02004817HS02004807 CONDUIT    699.68     0  02:03      1.00    0.41    1.00
  HS02004817HS02004824 CONDUIT    698.93     0  02:03      1.00    0.32    1.00
  HS02004824HS02004830 CONDUIT    654.11     0  01:56      0.95    0.86    1.00
  HS02004830HS02004837 CONDUIT    658.60     0  01:56      1.03    0.66    1.00
  HS02004837HS02004842 CONDUIT    845.34     0  01:56      1.21    0.50    1.00
  HS02004842HS02004848 CONDUIT    843.91     0  01:56      1.35    0.49    1.00
  HS02004848HS02004852 CONDUIT   1090.48     0  01:58      1.62    1.23    1.00
  HS02004852HS02004856 CONDUIT   1101.56     0  01:58      1.57    1.26    1.00
  HS02004856HS02004862 CONDUIT   1095.81     0  01:58      1.72    1.09    1.00
  HS02004862HS02004870 CONDUIT   1213.67     0  01:58      1.93    1.31    1.00
  HS02004870HS02004876 CONDUIT   1197.49     0  01:58      1.79    0.79    1.00
  HS02004876HS02004881 CONDUIT   1346.24     0  01:58      2.37   14.32    1.00
  HS02004881HS02006253 CONDUIT   1448.70     0  02:02      2.68    0.28    1.00
  HS02004901HS02004770 CONDUIT    265.78     0  02:14      0.38    1.00    1.00
  WS02001211WS02001212 CONDUIT    209.35     0  03:10      0.54    0.16    0.69
  WS02001212WS02001213 CONDUIT    212.40     0  03:11      1.04    0.33    0.56
  WS02001213WS02003059 CONDUIT    216.43     0  03:11      0.47    0.36    0.89
  WS02003059WS02003060 CONDUIT    221.31     0  03:11      0.66    0.14    0.81
  WS02003060WS02003069 CONDUIT   1490.99     0  02:05      2.08    0.58    0.61
  WS02003066WSF200     CONDUIT   1288.50     0  02:02      3.25    0.22    0.38
  WS02003067WS02003066 CONDUIT   1288.52     0  02:02      1.99    0.41    0.56
  WS02003069WS02003072 CONDUIT   1491.31     0  02:06      1.89    0.72    0.66
  WS02003072WS02003073 CONDUIT   1491.22     0  02:06      2.05    3.22    0.61
  WS02004138WS02004139 CONDUIT    190.68     0  00:29      2.16    0.04    0.41
  WS02004139WS02001211 CONDUIT    197.71     0  03:10      0.54    0.25    0.60
  WS02004401WS02004402 CONDUIT   1288.15     0  02:02      1.64    1.55    1.00
  WS02004402WS02004403 CONDUIT   1288.02     0  02:02      1.64    1.85    1.00
  WS02004403WS02004404 CONDUIT   1288.26     0  02:02      1.64    0.93    1.00
  WS02004404WS02004405 CONDUIT   1289.22     0  02:01      1.64   12.63    1.00
  WS02004405WS02004406 CONDUIT   1288.27     0  02:01      1.64    2.54    1.00
  WS02004406WS02004407 CONDUIT   1288.17     0  02:02      1.72    0.58    0.95
  WS02004407WS02004409 CONDUIT   1288.14     0  02:02      1.79    0.46    0.95
  WS02004409WS02004410 CONDUIT   1288.51     0  02:02      1.64    1.67    1.00
  WS02004410WS02004411 CONDUIT   1288.61     0  02:02      1.64    1.76    1.00
  WS02004411WS02004412 CONDUIT   1288.61     0  02:02      1.64    1.83    1.00
  WS02004412WS02004413 CONDUIT   1288.50     0  02:02      1.64    0.86    1.00
  WS02004413WS02003067 CONDUIT   1288.56     0  02:02      2.00    0.55    0.77
  WS02006109WS02006110 CONDUIT   1136.96     0  02:20      2.26    2.19    1.00
  WS02006110WS02006113 CONDUIT   1129.66     0  02:20      2.25    1.03    1.00
  WS02006111WS02006112 CONDUIT   1123.54     0  02:18      2.24    0.53    1.00
  WS02006112WS02006115 CONDUIT   1287.65     0  02:01      1.64    0.76    1.00
  WS02006113WS02006111 CONDUIT   1123.62     0  02:19      2.67    1.35    1.00
  WS02006115WS02006116 CONDUIT   1287.92     0  02:02      1.64    1.65    1.00
  WS02006116WS02004401 CONDUIT   1287.96     0  02:01      1.64    1.78    1.00
  WS02006228WS02006109 CONDUIT   1279.61     0  02:02      2.55    5.59    1.00
  WS02006229WS02006228 CONDUIT   1279.81     0  02:02      2.55    4.24    1.00
  WS02006230WS02006229 CONDUIT   1007.37     0  02:02      2.62   22.42    1.00
  WS02006231WS02006230 CONDUIT    547.85     0  03:45      1.47    8.31    1.00
  WS02006232WS02006231 CONDUIT    566.64     0  03:45      1.48    1.19    1.00
  WS02006234WS02006232 CONDUIT    564.41     0  03:45      1.47    1.14    1.00
  WS02006235WS02006234 CONDUIT    553.24     0  03:45      1.44    5.84    1.00
  WS02006238WS02006235 CONDUIT    422.26     0  03:32      1.45    0.94    1.00
  WS02006239WS02006238 CONDUIT    422.34     0  03:32      1.11    1.35    1.00
  WS02006240WS02006239 CONDUIT    422.70     0  03:32      1.26    1.33    1.00
  WS02006242WS02006240 CONDUIT    423.12     0  03:32      1.14    1.68    1.00
  WS02006243WS02006242 CONDUIT    423.53     0  03:32      1.34    0.90    1.00
  WS02006245WS02006243 CONDUIT    423.89     0  03:32      1.39    1.25    1.00
  WS02006247WS02006245 CONDUIT    424.26     0  03:32      1.37    3.36    1.00
  WS02006248WS02006247 CONDUIT    424.49     0  03:32      1.38    0.92    1.00
  WS02006249WS02006248 CONDUIT    425.00     0  03:32      1.38    2.33    1.00
  WS02006251WS02006249 CONDUIT   1338.22     0  01:58      3.48    3.86    1.00
  WS02006252WS02006251 CONDUIT    405.56     0  02:33     19.70    1.49    1.00
  WS02006253WS02006251 CONDUIT   1476.68     0  02:02      3.84    4.43    1.00
  WS02006256WS02006235 CONDUIT    288.93     0  00:00      4.23    3.06    1.00
  WS02006280WS02006229 CONDUIT   2287.58     0  02:01      4.28    0.49    1.00
  WS02006284WS02006280 CONDUIT   2286.79     0  02:02      2.96    0.96    1.00
  WS02006287WS02006284 CONDUIT   2286.49     0  02:02      2.91    1.06    1.00
  WSF200WS02003060     CONDUIT   1287.91     0  02:03      2.29    0.29    0.50
  YS02001580YS02001583 CONDUIT    106.28     0  01:55      0.63    0.41    1.00
  YS02001583YS02001586 CONDUIT    156.37     0  01:55      0.66    0.24    1.00
  YS02001586YS02001590 CONDUIT    325.61     0  02:20      1.25    0.57    1.00
  YS02001590YS02001593 CONDUIT    320.49     0  02:20      1.13    2.01    1.00
  YS02001593YS02001596 CONDUIT    318.04     0  02:16      1.74    0.50    1.00
  YS02001596YS02001600 CONDUIT    318.23     0  02:14      1.23    0.62    1.00
  YS02001600YS02001601 CONDUIT    318.55     0  02:14      1.13    0.55    1.00
  YS02001601YS02001602 CONDUIT    517.14     0  01:54      1.83    1.87    1.00
  YS02001602YS02001605 CONDUIT    516.85     0  01:54      1.83   10.94    1.00
  YS02001605YS02001607 CONDUIT    516.56     0  01:54      1.83    2.83    1.00
  YS02001607YS02001610 CONDUIT    520.07     0  01:54      0.66    0.49    1.00
  YS02001610YS02001613 CONDUIT    519.65     0  01:54      0.66    0.60    1.00
  YS02001613YS02001616 CONDUIT    516.87     0  01:54      0.66    0.44    1.00
  YS02001616YS02001619 CONDUIT    502.25     0  01:55      0.67    0.87    1.00
  YS02001619YS02001622 CONDUIT    932.51     0  01:57      1.19    1.37    1.00
  YS02001622YS02001625 CONDUIT    931.40     0  01:57      1.19    0.50    1.00
  YS02001625YS02001629 CONDUIT    930.85     0  01:57      1.19    0.44    1.00
  YS02001629YS02163301 CONDUIT    929.82     0  01:57      1.18    1.15    1.00
  YS02001633YS02163601 CONDUIT   1399.54     0  01:58      1.78    1.47    1.00
  YS02001641YS02001644 CONDUIT   1394.17     0  01:57      1.78    4.51    1.00
  YS02001644YS02001647 CONDUIT   1826.32     0  01:58      2.33    1.07    1.00
  YS02001647YS02001649 CONDUIT   1839.36     0  01:58      2.37    0.97    1.00
  YS02001649YS02001757 CONDUIT   2086.34     0  01:58      2.66    1.27    1.00
  YS02001652YS02001649 CONDUIT    795.95     0  02:02      1.01    0.39    1.00
  YS02001655YS02001652 CONDUIT    795.41     0  02:02      1.33    0.39    1.00
  YS02001658YS02001655 CONDUIT    794.21     0  02:02      1.91    0.34    1.00
  YS02001661YS02001658 CONDUIT    793.30     0  02:02      2.35    0.31    1.00
  YS02001664YS02001661 CONDUIT    816.64     0  02:01      2.38    0.26    0.78
  YS02001745YS02001748 CONDUIT    623.96     0  02:00      2.23    0.24    0.89
  YS02001748YS02001751 CONDUIT    503.03     0  02:01      1.75    0.25    1.00
  YS02001751YS02001754 CONDUIT    503.58     0  02:01      1.46    0.24    1.00
  YS02001754YS02001757 CONDUIT    502.56     0  02:01      0.64    0.20    1.00
  YS02001757CaochengTiaoxuchi CONDUIT   3463.56     0  02:01      4.47    1.50    1.00
  YS02001759YS02001757 CONDUIT   1376.00     0  02:03      1.75    0.98    1.00
  YS02001762YS02001759 CONDUIT    804.36     0  02:03      1.02    0.93    1.00
  YS02001765YS02001762 CONDUIT    804.19     0  02:04      1.02    0.75    1.00
  YS02001767YS02001765 CONDUIT    804.43     0  02:03      1.02    1.01    1.00
  YS02001770YS02001767 CONDUIT    803.53     0  02:03      1.02    3.18    1.00
  YS02001774YS02001770 CONDUIT    381.10     0  01:59      0.49    0.24    1.00
  YS02001779YS02001774 CONDUIT    391.44     0  01:59      0.50    0.20    1.00
  YS02001783YS02001784 CONDUIT   1159.25     0  02:01      2.31    1.60    1.00
  YS02001784YS02001785 CONDUIT   1160.38     0  02:01      2.31    2.70    1.00
  YS02001786YS02001788 CONDUIT   1160.40     0  02:01      2.48    2.24    0.89
  YS02001788YS02001790 CONDUIT   1172.74     0  02:01      2.71    0.86    0.84
  YS02001790YS02001791 CONDUIT   1284.67     0  02:00      3.42    1.40    0.71
  YS02001791YS02001793 CONDUIT   1224.36     0  02:08      6.76    0.53    0.44
  YS02001793JiankangQianchi CONDUIT   1257.38     0  02:04      2.52    0.10    0.64
  YS02001882YS02001884 CONDUIT     49.72     0  01:56      0.13    0.06    1.00
  YS02001884YS02001887 CONDUIT     74.87     0  01:56      0.10    0.10    1.00
  YS02001887YS02001890 CONDUIT    643.84     0  02:01      0.82    1.10    1.00
  YS02001890YS02001895 CONDUIT    516.98     0  02:04      0.66    0.24    1.00
  YS02001895YS02001898 CONDUIT    516.99     0  02:05      0.66    0.90    1.00
  YS02001898YS02001901 CONDUIT    517.11     0  02:05      0.66    0.33    1.00
  YS02001901YS02001904 CONDUIT    517.20     0  02:04      0.66    0.80    1.00
  YS02001904YS02001907 CONDUIT    517.51     0  02:05      0.66    0.18    1.00
  YS02001907YS02006553 CONDUIT    796.75     0  02:17      0.89    0.94    1.00
  YS02001910YS02001907 CONDUIT   1146.20     0  02:03      1.46    0.65    1.00
  YS02001915YS02001910 CONDUIT   1145.82     0  02:03      1.46    0.57    1.00
  YS02001918YS02001915 CONDUIT    441.07     0  01:59      0.56    0.24    1.00
  YS02001920YS02001918 CONDUIT    439.76     0  01:59      0.64    0.43    1.00
  YS02001923YS02001920 CONDUIT    436.43     0  01:59      0.69    0.20    1.00
  YS02001926YS02001923 CONDUIT    424.68     0  01:58      0.96    0.61    1.00
  YS02001929YS02001926 CONDUIT    401.35     0  01:59      1.13    0.19    1.00
  YS02006553YS02006556 CONDUIT    794.89     0  02:17      1.01    0.68    1.00
  YS02006556YS02006558 CONDUIT    795.52     0  02:18      1.01    0.63    1.00
  YS02006558YS02006561 CONDUIT   1166.06     0  01:58      4.12    2.58    1.00
  YS02006561YS02001783 CONDUIT   1159.26     0  02:01      2.31    0.60    1.00
  YS02163301YS02001633 CONDUIT    929.06     0  01:57      1.18    0.87    1.00
  YS02163601YS02164001 CONDUIT   1398.50     0  01:58      1.78    1.24    1.00
  YS02164001YS02001641 CONDUIT   1395.49     0  01:58      1.78    1.91    1.00
  YSB1154YSB6556       CONDUIT    346.51     0  02:02      0.90    0.62    1.00
  YSB1171HS02004479    CONDUIT    467.51     0  01:58      0.93    0.31    1.00
  YSB1174YSB1171       CONDUIT    302.61     0  02:01      0.79    0.46    1.00
  YSB6556YSB1171       CONDUIT    346.82     0  02:02      0.90    0.36    1.00
  CC-R1                PUMP       683.00     0  00:00              1.00
  CC-R2                PUMP       683.00     0  00:00              1.00
  CC-S1                PUMP       200.00     0  00:00              1.00
  CC-S2                PUMP       200.00     0  00:00              1.00
  JK-R1                PUMP      1000.00     0  00:00              1.00
  JK-R2                PUMP      1000.00     0  00:00              1.00
  JK-S                 PUMP       300.00     0  00:00              1.00
  XR-1                 PUMP        95.00     0  00:00              1.00
  XR-2                 PUMP        95.00     0  00:00              1.00
  XR-3                 PUMP        95.00     0  00:00              1.00
  XR-4                 PUMP        95.00     0  00:00              1.00
  
  
  ***************************
  Flow Classification Summary
  ***************************
  
  -------------------------------------------------------------------------------------
                      Adjusted    ---------- Fraction of Time in Flow Class ---------- 
                       /Actual         Up    Down  Sub   Sup   Up    Down  Norm  Inlet 
  Conduit               Length    Dry  Dry   Dry   Crit  Crit  Crit  Crit  Ltd   Ctrl  
  -------------------------------------------------------------------------------------
  1                       1.00   0.00  0.00  0.00  0.00  1.00  0.00  0.00  0.32  0.00
  HS02004478WS02006287    1.00   0.11  0.00  0.00  0.59  0.30  0.00  0.00  0.59  0.00
  HS02004479HS02004480    1.00   0.06  0.00  0.00  0.94  0.00  0.00  0.00  0.11  0.00
  HS02004480HS02004478    1.00   0.10  0.00  0.00  0.49  0.00  0.00  0.40  0.00  0.00
  HS02004770HS02004777    1.00   0.00  0.10  0.00  0.90  0.00  0.00  0.00  0.03  0.00
  HS02004777HS02004785    1.00   0.00  0.00  0.00  1.00  0.00  0.00  0.00  0.12  0.00
  HS02004785HS02004788    1.00   0.00  0.00  0.00  1.00  0.00  0.00  0.00  0.00  0.00
  HS02004788HS02004792    1.00   0.00  0.00  0.00  0.99  0.01  0.00  0.00  0.90  0.00
  HS02004792HS02004799    1.00   0.00  0.00  0.00  0.98  0.02  0.00  0.00  0.86  0.00
  HS02004799HS02004480    1.00   0.00  0.06  0.00  0.89  0.00  0.05  0.00  0.00  0.00
  HS02004802HS02004478    1.00   0.10  0.00  0.00  0.89  0.00  0.00  0.00  0.02  0.00
  HS02004807HS02004802    1.00   0.10  0.00  0.00  0.89  0.00  0.00  0.01  0.00  0.00
  HS02004817HS02004807    1.00   0.00  0.10  0.00  0.90  0.00  0.00  0.00  0.01  0.00
  HS02004817HS02004824    1.00   0.00  0.00  0.00  1.00  0.00  0.00  0.00  0.81  0.00
  HS02004824HS02004830    1.00   0.00  0.00  0.00  1.00  0.00  0.00  0.00  0.01  0.00
  HS02004830HS02004837    1.00   0.00  0.00  0.00  1.00  0.00  0.00  0.00  0.88  0.00
  HS02004837HS02004842    1.00   0.00  0.00  0.00  1.00  0.00  0.00  0.00  0.11  0.00
  HS02004842HS02004848    1.00   0.00  0.10  0.00  0.90  0.00  0.00  0.00  0.56  0.00
  HS02004848HS02004852    1.00   0.10  0.00  0.00  0.90  0.00  0.00  0.00  0.71  0.00
  HS02004852HS02004856    1.00   0.10  0.00  0.00  0.90  0.00  0.00  0.00  0.67  0.00
  HS02004856HS02004862    1.00   0.00  0.12  0.00  0.88  0.00  0.00  0.00  0.75  0.00
  HS02004862HS02004870    1.00   0.00  0.00  0.00  1.00  0.00  0.00  0.00  0.03  0.00
  HS02004870HS02004876    1.00   0.00  0.00  0.00  0.99  0.01  0.00  0.00  0.86  0.00
  HS02004876HS02004881    1.00   0.04  0.00  0.00  0.71  0.25  0.00  0.00  0.00  0.00
  HS02004881HS02006253    1.00   0.02  0.04  0.00  0.46  0.03  0.00  0.44  0.21  0.00
  HS02004901HS02004770    1.00   0.10  0.00  0.00  0.90  0.00  0.00  0.00  0.00  0.00
  WS02001211WS02001212    1.00   0.00  0.05  0.00  0.95  0.00  0.00  0.00  0.00  0.00
  WS02001212WS02001213    1.00   0.05  0.00  0.00  0.48  0.00  0.47  0.00  0.00  0.00
  WS02001213WS02003059    1.00   0.00  0.00  0.00  0.99  0.00  0.00  0.00  0.00  0.00
  WS02003059WS02003060    1.00   0.00  0.00  0.00  1.00  0.00  0.00  0.00  0.03  0.00
  WS02003060WS02003069    1.00   0.00  0.00  0.00  0.99  0.01  0.00  0.00  0.50  0.00
  WS02003066WSF200        1.00   0.08  0.00  0.00  0.00  0.92  0.00  0.00  0.66  0.00
  WS02003067WS02003066    1.00   0.07  0.00  0.00  0.92  0.00  0.00  0.00  0.00  0.00
  WS02003069WS02003072    1.00   0.00  0.00  0.00  1.00  0.00  0.00  0.00  0.65  0.00
  WS02003072WS02003073    1.00   0.00  0.00  0.00  0.00  0.00  0.00  1.00  0.00  0.00
  WS02004138WS02004139    1.00   0.00  0.01  0.00  0.95  0.01  0.00  0.02  0.98  0.00
  WS02004139WS02001211    1.00   0.00  0.00  0.00  0.99  0.00  0.00  0.00  0.00  0.00
  WS02004401WS02004402    1.00   0.05  0.00  0.00  0.95  0.00  0.00  0.00  0.00  0.00
  WS02004402WS02004403    1.00   0.05  0.00  0.00  0.95  0.00  0.00  0.00  0.00  0.00
  WS02004403WS02004404    1.00   0.00  0.05  0.00  0.95  0.00  0.00  0.00  0.00  0.00
  WS02004404WS02004405    1.00   0.00  0.00  0.00  1.00  0.00  0.00  0.00  0.01  0.00
  WS02004405WS02004406    1.00   0.00  0.00  0.00  1.00  0.00  0.00  0.00  0.00  0.00
  WS02004406WS02004407    1.00   0.00  0.06  0.00  0.94  0.00  0.00  0.00  0.00  0.00
  WS02004407WS02004409    1.00   0.06  0.00  0.00  0.93  0.00  0.00  0.00  0.83  0.00
  WS02004409WS02004410    1.00   0.06  0.00  0.00  0.94  0.00  0.00  0.00  0.00  0.00
  WS02004410WS02004411    1.00   0.06  0.00  0.00  0.94  0.00  0.00  0.00  0.00  0.00
  WS02004411WS02004412    1.00   0.06  0.00  0.00  0.94  0.00  0.00  0.00  0.00  0.00
  WS02004412WS02004413    1.00   0.06  0.00  0.00  0.93  0.00  0.00  0.00  0.00  0.00
  WS02004413WS02003067    1.00   0.07  0.01  0.00  0.00  0.00  0.93  0.00  0.00  0.00
  WS02006109WS02006110    1.00   0.00  0.01  0.00  0.97  0.00  0.03  0.00  0.00  0.00
  WS02006110WS02006113    1.00   0.01  0.03  0.00  0.97  0.00  0.00  0.00  0.00  0.00
  WS02006111WS02006112    1.00   0.04  0.00  0.00  0.95  0.00  0.00  0.01  0.75  0.00
  WS02006112WS02006115    1.00   0.04  0.01  0.00  0.95  0.00  0.00  0.00  0.00  0.00
  WS02006113WS02006111    1.00   0.03  0.00  0.00  0.28  0.69  0.00  0.00  0.08  0.00
  WS02006115WS02006116    1.00   0.05  0.00  0.00  0.95  0.00  0.00  0.01  0.00  0.00
  WS02006116WS02004401    1.00   0.05  0.00  0.00  0.95  0.00  0.00  0.00  0.00  0.00
  WS02006228WS02006109    1.00   0.00  0.00  0.00  1.00  0.00  0.00  0.00  0.00  0.00
  WS02006229WS02006228    1.00   0.00  0.00  0.00  0.99  0.00  0.00  0.01  0.00  0.00
  WS02006230WS02006229    1.00   0.00  0.00  0.00  0.98  0.00  0.00  0.02  0.04  0.00
  WS02006231WS02006230    1.00   0.00  0.00  0.00  0.51  0.00  0.48  0.00  0.00  0.00
  WS02006232WS02006231    1.00   0.00  0.00  0.00  0.99  0.00  0.00  0.00  0.00  0.00
  WS02006234WS02006232    1.00   0.00  0.00  0.00  1.00  0.00  0.00  0.00  0.04  0.00
  WS02006235WS02006234    1.00   0.00  0.00  0.00  0.94  0.00  0.06  0.00  0.00  0.00
  WS02006238WS02006235    1.00   0.00  0.00  0.00  1.00  0.00  0.00  0.00  0.01  0.00
  WS02006239WS02006238    1.00   0.00  0.00  0.00  1.00  0.00  0.00  0.00  0.12  0.00
  WS02006240WS02006239    1.00   0.00  0.00  0.00  0.82  0.00  0.00  0.17  0.05  0.00
  WS02006242WS02006240    1.00   0.00  0.00  0.00  0.99  0.00  0.01  0.00  0.00  0.00
  WS02006243WS02006242    1.00   0.00  0.00  0.00  0.99  0.00  0.00  0.00  0.62  0.00
  WS02006245WS02006243    1.00   0.00  0.00  0.00  0.86  0.00  0.00  0.14  0.00  0.00
  WS02006247WS02006245    1.00   0.00  0.00  0.00  0.98  0.00  0.00  0.02  0.00  0.00
  WS02006248WS02006247    1.00   0.00  0.00  0.00  0.99  0.00  0.00  0.00  0.54  0.00
  WS02006249WS02006248    1.00   0.00  0.00  0.00  0.62  0.00  0.38  0.00  0.00  0.00
  WS02006251WS02006249    1.00   0.00  0.00  0.00  1.00  0.00  0.00  0.00  0.58  0.00
  WS02006252WS02006251    1.00   0.00  0.41  0.00  0.36  0.00  0.23  0.00  0.01  0.00
  WS02006253WS02006251    1.00   0.00  0.00  0.00  0.98  0.00  0.02  0.00  0.01  0.00
  WS02006256WS02006235    1.00   0.00  0.00  0.00  0.98  0.02  0.00  0.00  0.01  0.00
  WS02006280WS02006229    1.00   0.11  0.00  0.00  0.22  0.04  0.00  0.63  0.01  0.00
  WS02006284WS02006280    1.00   0.11  0.00  0.00  0.15  0.02  0.00  0.72  0.00  0.00
  WS02006287WS02006284    1.00   0.09  0.02  0.00  0.44  0.45  0.00  0.00  0.66  0.00
  WSF200WS02003060        1.00   0.00  0.08  0.00  0.47  0.45  0.00  0.00  0.63  0.00
  YS02001580YS02001583    1.00   0.24  0.48  0.00  0.28  0.00  0.00  0.00  0.67  0.00
  YS02001583YS02001586    1.00   0.27  0.33  0.00  0.39  0.00  0.00  0.00  0.67  0.00
  YS02001586YS02001590    1.00   0.10  0.00  0.00  0.63  0.03  0.00  0.24  0.37  0.00
  YS02001590YS02001593    1.00   0.10  0.00  0.00  0.17  0.00  0.73  0.00  0.00  0.00
  YS02001593YS02001596    1.00   0.10  0.00  0.00  0.20  0.01  0.00  0.69  0.02  0.00
  YS02001596YS02001600    1.00   0.10  0.00  0.00  0.30  0.03  0.00  0.56  0.05  0.00
  YS02001600YS02001601    1.00   0.10  0.00  0.00  0.89  0.00  0.00  0.00  0.60  0.00
  YS02001601YS02001602    1.00   0.10  0.00  0.00  0.90  0.00  0.00  0.00  0.00  0.00
  YS02001602YS02001605    1.00   0.10  0.00  0.00  0.90  0.00  0.00  0.00  0.00  0.00
  YS02001605YS02001607    1.00   0.10  0.00  0.00  0.90  0.00  0.00  0.00  0.00  0.00
  YS02001607YS02001610    1.00   0.10  0.00  0.00  0.89  0.00  0.00  0.00  0.01  0.00
  YS02001610YS02001613    1.00   0.10  0.00  0.00  0.90  0.00  0.00  0.00  0.00  0.00
  YS02001613YS02001616    1.00   0.10  0.00  0.00  0.90  0.00  0.00  0.00  0.00  0.00
  YS02001616YS02001619    1.00   0.10  0.00  0.00  0.90  0.00  0.00  0.00  0.00  0.00
  YS02001619YS02001622    1.00   0.10  0.00  0.00  0.90  0.00  0.00  0.00  0.29  0.00
  YS02001622YS02001625    1.00   0.10  0.00  0.00  0.90  0.00  0.00  0.00  0.04  0.00
  YS02001625YS02001629    1.00   0.10  0.02  0.00  0.24  0.00  0.64  0.00  0.00  0.00
  YS02001629YS02163301    1.00   0.11  0.00  0.00  0.88  0.00  0.00  0.00  0.00  0.00
  YS02001633YS02163601    1.00   0.00  0.01  0.00  0.99  0.00  0.00  0.00  0.15  0.00
  YS02001641YS02001644    1.00   0.00  0.00  0.00  1.00  0.00  0.00  0.00  0.00  0.00
  YS02001644YS02001647    1.00   0.00  0.12  0.00  0.88  0.00  0.00  0.00  0.00  0.00
  YS02001647YS02001649    1.00   0.00  0.12  0.00  0.51  0.37  0.00  0.00  0.57  0.00
  YS02001649YS02001757    1.00   0.00  0.00  0.00  0.61  0.39  0.00  0.00  0.46  0.00
  YS02001652YS02001649    1.00   0.00  0.00  0.00  0.98  0.02  0.00  0.00  0.74  0.00
  YS02001655YS02001652    1.00   0.00  0.00  0.00  0.27  0.01  0.00  0.72  0.06  0.00
  YS02001658YS02001655    1.00   0.00  0.11  0.00  0.54  0.35  0.00  0.00  0.70  0.00
  YS02001661YS02001658    1.00   0.11  0.00  0.00  0.36  0.53  0.00  0.00  0.70  0.00
  YS02001664YS02001661    1.00   0.10  0.00  0.00  0.70  0.20  0.00  0.00  0.86  0.00
  YS02001745YS02001748    1.00   0.00  0.00  0.00  0.11  0.02  0.00  0.87  0.05  0.00
  YS02001748YS02001751    1.00   0.00  0.00  0.00  0.71  0.29  0.00  0.00  0.78  0.00
  YS02001751YS02001754    1.00   0.00  0.00  0.00  0.22  0.01  0.00  0.77  0.04  0.00
  YS02001754YS02001757    1.00   0.00  0.00  0.00  1.00  0.00  0.00  0.00  0.82  0.00
  YS02001757CaochengTiaoxuchi    1.00   0.00  0.00  0.00  0.92  0.08  0.00  0.00  0.79  0.00
  YS02001759YS02001757    1.00   0.00  0.00  0.00  1.00  0.00  0.00  0.00  0.61  0.00
  YS02001762YS02001759    1.00   0.00  0.00  0.00  1.00  0.00  0.00  0.00  0.04  0.00
  YS02001765YS02001762    1.00   0.00  0.00  0.00  1.00  0.00  0.00  0.00  0.73  0.00
  YS02001767YS02001765    1.00   0.00  0.00  0.00  1.00  0.00  0.00  0.00  0.00  0.00
  YS02001770YS02001767    1.00   0.00  0.00  0.00  1.00  0.00  0.00  0.00  0.00  0.00
  YS02001774YS02001770    1.00   0.00  0.10  0.00  0.80  0.00  0.10  0.00  0.03  0.00
  YS02001779YS02001774    1.00   0.00  0.00  0.00  1.00  0.00  0.00  0.00  0.77  0.00
  YS02001783YS02001784    1.00   0.00  0.13  0.00  0.87  0.00  0.00  0.00  0.55  0.00
  YS02001784YS02001785    1.00   0.00  0.00  0.00  1.00  0.00  0.00  0.00  0.17  0.00
  YS02001786YS02001788    1.00   0.00  0.00  0.00  0.61  0.39  0.00  0.00  0.00  0.00
  YS02001788YS02001790    1.00   0.00  0.00  0.00  0.17  0.83  0.00  0.00  0.80  0.00
  YS02001790YS02001791    1.00   0.00  0.00  0.00  0.02  0.98  0.00  0.00  0.17  0.00
  YS02001791YS02001793    1.00   0.00  0.00  0.00  0.00  1.00  0.00  0.00  0.01  0.00
  YS02001793JiankangQianchi    1.00   0.00  0.00  0.00  0.96  0.04  0.00  0.00  0.98  0.00
  YS02001882YS02001884    1.00   0.11  0.00  0.00  0.89  0.00  0.00  0.00  0.00  0.00
  YS02001884YS02001887    1.00   0.07  0.02  0.00  0.90  0.00  0.00  0.00  0.00  0.00
  YS02001887YS02001890    1.00   0.00  0.00  0.00  0.95  0.00  0.05  0.00  0.00  0.00
  YS02001890YS02001895    1.00   0.00  0.11  0.00  0.88  0.00  0.00  0.00  0.00  0.00
  YS02001895YS02001898    1.00   0.12  0.00  0.00  0.87  0.00  0.02  0.00  0.00  0.00
  YS02001898YS02001901    1.00   0.12  0.00  0.00  0.88  0.00  0.00  0.00  0.01  0.00
  YS02001901YS02001904    1.00   0.12  0.00  0.00  0.88  0.00  0.00  0.00  0.00  0.00
  YS02001904YS02001907    1.00   0.00  0.11  0.00  0.88  0.00  0.00  0.00  0.00  0.00
  YS02001907YS02006553    1.00   0.00  0.04  0.00  0.95  0.00  0.00  0.00  0.00  0.00
  YS02001910YS02001907    1.00   0.00  0.00  0.00  0.95  0.00  0.00  0.05  0.12  0.00
  YS02001915YS02001910    1.00   0.00  0.00  0.00  0.96  0.04  0.00  0.00  0.16  0.00
  YS02001918YS02001915    1.00   0.00  0.00  0.00  0.95  0.04  0.00  0.00  0.75  0.00
  YS02001920YS02001918    1.00   0.00  0.00  0.00  1.00  0.00  0.00  0.00  0.00  0.00
  YS02001923YS02001920    1.00   0.00  0.00  0.00  1.00  0.00  0.00  0.00  0.93  0.00
  YS02001926YS02001923    1.00   0.00  0.08  0.00  0.07  0.00  0.85  0.00  0.00  0.00
  YS02001929YS02001926    1.00   0.00  0.10  0.00  0.90  0.00  0.00  0.00  0.83  0.00
  YS02006553YS02006556    1.00   0.02  0.00  0.00  0.98  0.00  0.00  0.00  0.03  0.00
  YS02006556YS02006558    1.00   0.00  0.00  0.00  1.00  0.00  0.00  0.00  0.00  0.00
  YS02006558YS02006561    1.00   0.13  0.00  0.00  0.07  0.80  0.00  0.00  0.19  0.00
  YS02006561YS02001783    1.00   0.13  0.00  0.00  0.12  0.76  0.00  0.00  0.69  0.00
  YS02163301YS02001633    1.00   0.00  0.11  0.00  0.89  0.00  0.00  0.00  0.00  0.00
  YS02163601YS02164001    1.00   0.00  0.08  0.00  0.92  0.00  0.00  0.00  0.00  0.00
  YS02164001YS02001641    1.00   0.01  0.08  0.00  0.92  0.00  0.00  0.00  0.05  0.00
  YSB1154YSB6556          1.00   0.10  0.00  0.00  0.90  0.00  0.00  0.00  0.02  0.00
  YSB1171HS02004479       1.00   0.06  0.00  0.00  0.93  0.00  0.00  0.01  0.10  0.00
  YSB1174YSB1171          1.00   0.07  0.02  0.00  0.91  0.00  0.00  0.00  0.00  0.00
  YSB6556YSB1171          1.00   0.06  0.04  0.00  0.90  0.00  0.00  0.00  0.00  0.00
  
  
  *************************
  Conduit Surcharge Summary
  *************************
  
  ----------------------------------------------------------------------------
                                                           Hours        Hours 
                         --------- Hours Full --------   Above Full   Capacity
  Conduit                Both Ends  Upstream  Dnstream   Normal Flow   Limited
  ----------------------------------------------------------------------------
  HS02004478WS02006287        0.44      0.44      0.62      0.01         0.01
  HS02004479HS02004480        0.63      0.63      0.65      0.01         0.01
  HS02004480HS02004478        0.56      0.62      0.56      1.69         0.56
  HS02004770HS02004777        0.52      0.52      0.53      0.10         0.07
  HS02004777HS02004785        0.48      0.48      0.53      0.01         0.01
  HS02004785HS02004788        0.46      0.48      0.46      1.46         0.44
  HS02004788HS02004792        0.46      0.46      0.59      0.01         0.01
  HS02004792HS02004799        0.59      0.59      0.71      0.01         0.01
  HS02004799HS02004480        0.62      0.62      0.71      0.82         0.01
  HS02004802HS02004478        0.57      0.57      0.64      0.01         0.01
  HS02004807HS02004802        0.61      0.61      0.63      0.20         0.21
  HS02004817HS02004807        0.61      0.61      1.26      0.01         0.01
  HS02004817HS02004824        0.47      0.47      1.26      0.01         0.01
  HS02004824HS02004830        0.44      0.44      0.47      0.01         0.01
  HS02004830HS02004837        0.39      0.39      0.44      0.01         0.01
  HS02004837HS02004842        0.39      0.39      0.54      0.01         0.01
  HS02004842HS02004848        0.36      0.36      0.54      0.01         0.01
  HS02004848HS02004852        0.36      0.36      0.39      0.03         0.01
  HS02004852HS02004856        0.39      0.39      0.41      0.02         0.01
  HS02004856HS02004862        0.37      0.37      0.41      0.01         0.01
  HS02004862HS02004870        0.41      0.41      0.43      0.09         0.07
  HS02004870HS02004876        0.43      0.43      0.51      0.01         0.01
  HS02004876HS02004881        0.49      0.51      0.49      1.48         0.49
  HS02004881HS02006253        0.49      0.49      1.85      0.01         0.01
  HS02004901HS02004770        0.52      0.52      0.53      0.01         0.01
  WS02003072WS02003073        0.01      0.01      0.01      2.41         0.01
  WS02004401WS02004402        1.56      1.56      1.60      1.39         1.38
  WS02004402WS02004403        1.59      1.60      1.61      1.56         1.55
  WS02004403WS02004404        1.61      1.61      1.83      0.01         0.01
  WS02004404WS02004405        1.79      1.83      1.79      3.00         1.79
  WS02004405WS02004406        1.76      1.79      1.76      2.02         1.76
  WS02004406WS02004407        0.01      0.01      1.76      0.01         0.01
  WS02004407WS02004409        0.01      0.01      1.04      0.01         0.01
  WS02004409WS02004410        0.95      1.04      0.95      1.46         0.95
  WS02004410WS02004411        0.86      0.95      0.86      1.52         0.86
  WS02004411WS02004412        0.74      0.86      0.74      1.55         0.74
  WS02004412WS02004413        0.74      0.74      1.35      0.01         0.01
  WS02004413WS02003067        0.01      0.01      1.35      0.01         0.01
  WS02006109WS02006110        2.00      2.00      2.26      2.02         0.01
  WS02006110WS02006113        1.32      1.32      2.25      0.31         0.01
  WS02006111WS02006112        1.27      1.27      2.35      0.01         0.01
  WS02006112WS02006115        1.47      1.47      2.04      0.01         0.01
  WS02006113WS02006111        1.30      1.32      1.30      1.37         1.30
  WS02006115WS02006116        1.48      1.48      1.49      1.45         1.44
  WS02006116WS02004401        1.56      1.56      1.56      1.52         1.51
  WS02006228WS02006109        2.24      2.26      2.24      2.44         2.24
  WS02006229WS02006228        2.24      2.25      2.24      2.34         2.24
  WS02006230WS02006229        2.28      2.30      2.29      3.22         1.22
  WS02006231WS02006230        1.87      1.87      2.00      2.78         1.01
  WS02006232WS02006231        1.98      1.98      2.19      0.05         0.15
  WS02006234WS02006232        2.02      2.02      2.19      0.03         0.04
  WS02006235WS02006234        1.97      1.98      2.01      2.47         0.98
  WS02006238WS02006235        2.05      2.05      2.14      0.01         0.31
  WS02006239WS02006238        2.05      2.08      2.08      1.41         0.51
  WS02006240WS02006239        1.96      1.99      1.97      1.37         0.46
  WS02006242WS02006240        1.97      1.97      2.09      1.63         0.87
  WS02006243WS02006242        1.98      1.98      2.04      0.01         0.02
  WS02006245WS02006243        1.96      1.96      1.97      0.48         0.44
  WS02006247WS02006245        1.95      1.97      1.95      2.13         0.71
  WS02006248WS02006247        1.93      1.93      1.95      0.01         0.03
  WS02006249WS02006248        1.90      1.90      1.93      1.01         0.01
  WS02006251WS02006249        1.92      1.93      1.93      1.89         1.79
  WS02006252WS02006251        2.06      2.06      2.09      1.52         0.01
  WS02006253WS02006251        1.93      1.93      1.94      0.76         0.01
  WS02006256WS02006235        2.75      2.79      6.92      0.79         0.01
  WS02006280WS02006229        0.75      0.75      0.91      0.01         0.01
  WS02006284WS02006280        0.65      0.65      0.73      0.01         0.01
  WS02006287WS02006284        0.55      0.55      0.66      0.24         0.24
  YS02001580YS02001583        0.55      0.55      0.61      0.01         0.01
  YS02001583YS02001586        0.56      0.56      0.69      0.01         0.01
  YS02001586YS02001590        0.70      0.70      0.77      0.01         0.01
  YS02001590YS02001593        0.77      0.77      0.79      0.82         0.01
  YS02001593YS02001596        0.78      0.78      0.89      0.01         0.01
  YS02001596YS02001600        0.94      0.94      1.05      0.01         0.01
  YS02001600YS02001601        1.13      1.13      1.44      0.01         0.01
  YS02001601YS02001602        1.34      1.34      1.48      1.08         0.01
  YS02001602YS02001605        1.28      1.28      1.34      2.26         0.01
  YS02001605YS02001607        1.22      1.28      1.22      1.41         1.22
  YS02001607YS02001610        0.74      0.74      0.77      0.01         0.01
  YS02001610YS02001613        0.73      0.73      0.77      0.01         0.01
  YS02001613YS02001616        0.69      0.69      0.73      0.01         0.01
  YS02001616YS02001619        0.67      0.67      0.69      0.01         0.01
  YS02001619YS02001622        0.67      0.67      0.67      0.81         0.64
  YS02001622YS02001625        0.67      0.67      0.86      0.01         0.01
  YS02001625YS02001629        0.62      0.62      0.86      0.01         0.01
  YS02001629YS02163301        0.85      0.85      0.85      0.25         0.22
  YS02001633YS02163601        0.88      0.88      0.90      0.42         0.40
  YS02001641YS02001644        0.76      0.80      0.76      1.51         0.75
  YS02001644YS02001647        0.54      0.54      0.76      0.04         0.01
  YS02001647YS02001649        0.54      0.54      0.65      0.01         0.01
  YS02001649YS02001757        0.64      0.65      0.70      0.28         0.22
  YS02001652YS02001649        0.47      0.47      0.65      0.01         0.01
  YS02001655YS02001652        0.29      0.29      0.45      0.01         0.01
  YS02001658YS02001655        0.12      0.12      0.29      0.01         0.01
  YS02001661YS02001658        0.01      0.01      0.12      0.01         0.01
  YS02001664YS02001661        0.01      0.01      0.02      0.01         0.01
  YS02001745YS02001748        0.01      0.01      0.01      0.01         0.01
  YS02001748YS02001751        0.09      0.09      0.18      0.01         0.01
  YS02001751YS02001754        0.18      0.18      0.33      0.01         0.01
  YS02001754YS02001757        0.38      0.38      0.70      0.01         0.01
  YS02001757CaochengTiaoxuchi        0.62      0.70      1.36      0.36         0.24
  YS02001759YS02001757        0.61      0.61      0.70      0.01         0.02
  YS02001762YS02001759        0.57      0.57      0.61      0.01         0.03
  YS02001765YS02001762        0.52      0.52      0.57      0.01         0.01
  YS02001767YS02001765        0.49      0.49      0.52      0.02         0.05
  YS02001770YS02001767        0.49      0.49      0.49      0.50         0.36
  YS02001774YS02001770        0.46      0.46      0.55      0.01         0.01
  YS02001779YS02001774        0.33      0.33      0.55      0.01         0.01
  YS02001783YS02001784        0.48      0.50      0.48      0.66         0.48
  YS02001784YS02001785        0.37      0.48      0.37      0.91         0.37
  YS02001786YS02001788        0.01      0.37      0.01      0.77         0.01
  YS02001790YS02001791        0.01      0.01      0.01      0.46         0.01
  YS02001793JiankangQianchi        0.01      0.01      6.25      0.01         0.01
  YS02001882YS02001884        0.45      0.45      0.46      0.01         0.01
  YS02001884YS02001887        0.48      0.48      0.49      0.01         0.01
  YS02001887YS02001890        0.51      0.51      0.52      0.06         0.01
  YS02001890YS02001895        0.43      0.43      0.53      0.01         0.01
  YS02001895YS02001898        0.43      0.43      0.43      0.01         0.01
  YS02001898YS02001901        0.44      0.44      0.48      0.01         0.01
  YS02001901YS02001904        0.47      0.47      0.48      0.01         0.01
  YS02001904YS02001907        0.47      0.47      0.74      0.01         0.01
  YS02001907YS02006553        0.92      0.92      0.99      0.01         0.01
  YS02001910YS02001907        0.53      0.53      0.72      0.01         0.01
  YS02001915YS02001910        0.44      0.44      0.54      0.01         0.01
  YS02001918YS02001915        0.36      0.36      0.44      0.01         0.01
  YS02001920YS02001918        0.36      0.36      0.37      0.01         0.01
  YS02001923YS02001920        0.31      0.31      0.37      0.01         0.01
  YS02001926YS02001923        0.02      0.02      0.03      0.01         0.01
  YS02001929YS02001926        0.01      0.01      0.03      0.01         0.01
  YS02006553YS02006556        0.63      0.63      0.74      0.01         0.01
  YS02006556YS02006558        0.68      0.68      0.76      0.01         0.01
  YS02006558YS02006561        0.39      0.62      0.39      0.86         0.39
  YS02006561YS02001783        0.33      0.33      0.50      0.01         0.01
  YS02163301YS02001633        0.85      0.85      0.89      0.01         0.01
  YS02163601YS02164001        0.81      0.81      0.90      0.08         0.01
  YS02164001YS02001641        0.80      0.81      0.80      0.78         0.66
  YSB1154YSB6556              0.69      0.69      0.85      0.01         0.01
  YSB1171HS02004479           0.58      0.58      0.85      0.01         0.01
  YSB1174YSB1171              0.75      0.75      1.14      0.01         0.01
  YSB6556YSB1171              0.69      0.69      1.34      0.01         0.01
  
  
  ***************
  Pumping Summary
  ***************
  
  ---------------------------------------------------------------------------------------------------------
                                                  Min       Avg       Max     Total     Power    % Time Off
                        Percent   Number of      Flow      Flow      Flow    Volume     Usage    Pump Curve
  Pump                 Utilized   Start-Ups       LPS       LPS       LPS  10^6 ltr     Kw-hr    Low   High
  ---------------------------------------------------------------------------------------------------------
  CC-R1                   23.33          27      0.00    683.00    683.00     4.589     82.37    0.0   39.0
  CC-R2                   19.10          25      0.00    683.00    683.00     3.756     67.63    0.0   37.8
  CC-S1                   26.54          21      0.00    200.00    200.00     1.529     10.48    0.0    0.0
  CC-S2                   24.52          25      0.00    200.00    200.00     1.413      9.62    0.0    0.0
  JK-R1                    4.56          13      0.00   1000.00   1000.00     1.312     13.96    0.0    0.0
  JK-R2                    5.62          15      0.00   1000.00   1000.00     1.619     13.68    0.0    0.0
  JK-S                    13.34          49      0.00    300.00    300.00     1.153     20.51    0.0    0.0
  XR-1                    97.91           2      0.00     95.00     95.00     2.679      9.62    0.0    0.0
  XR-2                    93.94           2      0.00     95.00     95.00     2.570      8.78    0.0    0.0
  XR-3                     0.00           1      0.00     95.00     95.00     0.000      0.00    0.0    0.0
  XR-4                     0.00           1      0.00     95.00     95.00     0.000      0.00    0.0    0.0
  

  Analysis begun on:  Fri Feb 24 05:44:13 2023
  Analysis ended on:  Fri Feb 24 05:44:15 2023
  Total elapsed time: 00:00:02