
  OWA STORM WATER MANAGEMENT MODEL - VERSION v5.1.14 (OWA 2023-01-25)
  --------------------------------------------------------------

  WARNING 04: minimum elevation drop used for Conduit WS02004404WS02004405
  WARNING 03: negative offset ignored for Link YS02001904YS02001907
  
  *********************************************************
  NOTE: The summary statistics displayed in this report are
  based on results found at every computational time step,  
  not just on results from each reporting time step.
  *********************************************************
  
  ****************
  Analysis Options
  ****************
  Flow Units ............... LPS
  Process Models:
    Rainfall/Runoff ........ YES
    RDII ................... NO
    Snowmelt ............... NO
    Groundwater ............ NO
    Flow Routing ........... YES
    Ponding Allowed ........ NO
    Water Quality .......... NO
  Infiltration Method ...... HORTON
  Flow Routing Method ...... DYNWAVE
  Surcharge Method ......... EXTRAN
  Starting Date ............ 08/28/2015 08:00:00
  Ending Date .............. 08/28/2015 16:00:00
  Antecedent Dry Days ...... 8.0
  Report Time Step ......... 00:01:00
  Wet Time Step ............ 00:01:00
  Dry Time Step ............ 00:01:00
  Routing Time Step ........ 30.00 sec
  Variable Time Step ....... YES
  Maximum Trials ........... 8
  Number of Threads ........ 1
  Head Tolerance ........... 0.001500 m
  
  
  **************************        Volume         Depth
  Runoff Quantity Continuity     hectare-m            mm
  **************************     ---------       -------
  Total Precipitation ......         3.577        59.052
  Evaporation Loss .........         0.000         0.000
  Infiltration Loss ........         0.231         3.819
  Surface Runoff ...........         3.286        54.246
  Final Storage ............         0.061         1.005
  Continuity Error (%) .....        -0.029
  
  
  **************************        Volume        Volume
  Flow Routing Continuity        hectare-m      10^6 ltr
  **************************     ---------     ---------
  Dry Weather Inflow .......         0.630         6.296
  Wet Weather Inflow .......         3.286        32.861
  Groundwater Inflow .......         0.000         0.000
  RDII Inflow ..............         0.000         0.000
  External Inflow ..........         0.105         1.045
  External Outflow .........         2.496        24.960
  Flooding Loss ............         1.521        15.211
  Evaporation Loss .........         0.000         0.000
  Exfiltration Loss ........         0.000         0.000
  Initial Stored Volume ....         0.303         3.031
  Final Stored Volume ......         0.322         3.216
  Continuity Error (%) .....        -0.356
  
  
  *************************
  Highest Continuity Errors
  *************************
  Node YS02001583 (-14.09%)
  Node YS02001884 (4.77%)
  Node WS02006256 (-2.61%)
  Node HS02004842 (1.74%)
  Node YS02001774 (1.03%)
  
  
  ***************************
  Time-Step Critical Elements
  ***************************
  Link WS02006280WS02006229 (42.88%)
  Link WS02006252WS02006251 (18.23%)
  Link WS02006238WS02006235 (13.67%)
  Link YS02001791YS02001793 (7.62%)
  Link WS02003066WSF200 (2.59%)
  
  
  ********************************
  Highest Flow Instability Indexes
  ********************************
  Link WS02006113WS02006111 (29)
  Link WS02006256WS02006235 (23)
  Link WS02006229WS02006228 (22)
  Link WS02006238WS02006235 (21)
  Link WS02004404WS02004405 (19)
  
  
  *************************
  Routing Time Step Summary
  *************************
  Minimum Time Step           :     0.01 sec
  Average Time Step           :     2.39 sec
  Maximum Time Step           :     6.46 sec
  Percent in Steady State     :    -0.00
  Average Iterations per Step :     3.43
  Percent Not Converging      :    13.55
  
  
  ***************************
  Subcatchment Runoff Summary
  ***************************
  
  ------------------------------------------------------------------------------------------------------------------------------
                            Total      Total      Total      Total     Imperv       Perv      Total       Total     Peak  Runoff
                           Precip      Runon       Evap      Infil     Runoff     Runoff     Runoff      Runoff   Runoff   Coeff
  Subcatchment                 mm         mm         mm         mm         mm         mm         mm    10^6 ltr      LPS
  ------------------------------------------------------------------------------------------------------------------------------
  sub0                      59.05       0.00       0.00       0.99      53.68       3.15      56.82        0.05    34.45   0.962
  sub1                      59.05       0.00       0.00       1.66      51.31       4.84      56.15        0.37   220.81   0.951
  sub10                     59.05       0.00       0.00       1.18      53.05       3.55      56.60        0.62   379.63   0.958
  sub11                     59.05       0.00       0.00       1.16      53.07       3.56      56.63        0.66   428.03   0.959
  sub12                     59.05       0.00       0.00       1.89      50.21       5.79      56.00        0.49   346.55   0.948
  sub14                     59.05       0.00       0.00       1.32      52.49       3.99      56.48        0.54   338.00   0.956
  sub15                     59.05       0.00       0.00       5.09      40.37      12.63      53.00        0.91   496.86   0.898
  sub16                     59.05       0.00       0.00       5.29      38.66      14.21      52.87        0.55   335.80   0.895
  sub17                     59.05       0.00       0.00       5.15      39.24      13.75      52.99        0.45   272.84   0.897
  sub2                      59.05       0.00       0.00       7.21      36.30      14.64      50.95        0.47   214.02   0.863
  sub22                     59.05       0.00       0.00       7.68      32.88      17.72      50.60        3.20  1618.12   0.857
  sub23                     59.05       0.00       0.00       6.28      36.35      15.57      51.92        2.48  1355.98   0.879
  sub3                      59.05       0.00       0.00       7.82      36.26      14.03      50.30        1.13   457.53   0.852
  sub4                      59.05       0.00       0.00       1.83      51.15       4.67      55.82        1.16   510.60   0.945
  sub5                      59.05       0.00       0.00       1.03      53.62       3.11      56.73        0.64   383.30   0.961
  sub60                     59.05       0.00       0.00       1.77      50.77       5.32      56.08        0.74   483.16   0.950
  sub61                     59.05       0.00       0.00       2.56      47.89       7.48      55.37        1.02   664.31   0.938
  sub62                     59.05       0.00       0.00       1.18      53.05       3.54      56.59        1.55   928.58   0.958
  sub63                     59.05       0.00       0.00       4.69      40.96      12.44      53.40        1.21   716.79   0.904
  sub64                     59.05       0.00       0.00       2.37      48.99       6.49      55.48        1.33   736.19   0.939
  sub65                     59.05       0.00       0.00       2.06      50.13       5.62      55.75        1.53   820.90   0.944
  sub66                     59.05       0.00       0.00       5.73      40.86      11.39      52.25        2.44  1030.89   0.885
  sub67                     59.05       0.00       0.00       1.15      53.09       3.58      56.67        1.05   740.44   0.960
  sub68                     59.05       0.00       0.00       2.12      49.60       6.15      55.75        1.53   948.12   0.944
  sub69                     59.05       0.00       0.00       1.86      50.09       7.00      57.09        2.11  1105.39   0.967
  sub7                      59.05       0.00       0.00       1.31      52.50       4.01      56.51        0.19   127.17   0.957
  sub70                     59.05       0.00       0.00       6.12      38.82      13.96      52.78        1.52   584.17   0.894
  sub71                     59.05       0.00       0.00       1.21      53.01       3.52      56.52        1.48   801.27   0.957
  sub72                     59.05       0.00       0.00       1.07      53.52       3.06      56.58        0.78   380.26   0.958
  sub8                      59.05       0.00       0.00       1.32      52.49       4.00      56.49        0.36   231.08   0.957
  sub9                      59.05       0.00       0.00       1.32      52.49       4.00      56.48        0.27   172.22   0.956
  
  
  ******************
  Node Depth Summary
  ******************
  
  ---------------------------------------------------------------------------------
                                 Average  Maximum  Maximum  Time of Max    Reported
                                   Depth    Depth      HGL   Occurrence   Max Depth
  Node                 Type       Meters   Meters   Meters  days hr:min      Meters
  ---------------------------------------------------------------------------------
  HS02004478           JUNCTION     0.23     1.86    11.09     0  01:35        1.66
  HS02004479           JUNCTION     0.30     1.76    10.96     0  01:36        1.69
  HS02004480           JUNCTION     0.27     1.81    11.05     0  01:35        1.69
  HS02004770           JUNCTION     0.27     1.42    11.25     0  01:35        1.42
  HS02004777           JUNCTION     0.29     1.48    11.28     0  01:35        1.45
  HS02004785           JUNCTION     0.19     1.49    11.39     0  01:35        1.40
  HS02004788           JUNCTION     0.16     1.42    11.32     0  01:35        1.40
  HS02004792           JUNCTION     0.21     1.60    11.12     0  01:34        1.60
  HS02004799           JUNCTION     0.33     1.76    10.97     0  01:35        1.76
  HS02004802           JUNCTION     0.32     1.91    11.04     0  01:35        1.85
  HS02004807           JUNCTION     0.30     1.92    11.09     0  01:36        1.91
  HS02004817           JUNCTION     0.59     2.42    11.27     0  01:37        2.28
  HS02004824           JUNCTION     0.17     1.99    11.39     0  01:37        1.80
  HS02004830           JUNCTION     0.17     1.99    11.46     0  01:37        1.74
  HS02004837           JUNCTION     0.14     1.91    11.49     0  01:37        1.65
  HS02004842           JUNCTION     0.43     2.22    11.49     0  01:37        1.94
  HS02004848           JUNCTION     0.12     1.98    11.58     0  01:37        1.63
  HS02004852           JUNCTION     0.13     2.03    11.54     0  01:37        1.75
  HS02004856           JUNCTION     0.19     2.06    11.49     0  01:37        1.93
  HS02004862           JUNCTION     0.14     2.00    11.38     0  01:37        2.00
  HS02004870           JUNCTION     0.14     2.10    11.39     0  01:37        2.10
  HS02004876           JUNCTION     0.19     2.26    11.29     0  01:37        2.26
  HS02004881           JUNCTION     0.13     2.15    11.18     0  01:37        2.07
  HS02004901           JUNCTION     0.28     1.42    11.24     0  01:35        1.42
  WS02001211           JUNCTION     0.63     0.88     5.72     0  01:42        0.87
  WS02001212           JUNCTION     0.37     0.66     5.72     0  01:42        0.62
  WS02001213           JUNCTION     0.59     0.98     5.74     0  01:41        0.95
  WS02003059           JUNCTION     0.65     0.99     5.67     0  01:44        0.96
  WS02003060           JUNCTION     0.38     0.70     5.63     0  01:44        0.69
  WS02003066           JUNCTION     0.23     0.47     6.02     0  01:36        0.47
  WS02003067           JUNCTION     0.54     0.97     6.29     0  01:36        0.93
  WS02003069           JUNCTION     0.43     0.78     5.37     0  01:45        0.78
  WS02003072           JUNCTION     0.49     0.82     5.19     0  01:44        0.82
  WS02003073           JUNCTION     0.29     0.52     4.59     0  01:45        0.52
  WS02004138           JUNCTION     0.13     0.14     7.39     0  00:29        0.14
  WS02004139           JUNCTION     0.56     0.79     5.70     0  01:40        0.78
  WS02004401           JUNCTION     0.76     2.26     8.26     0  01:34        1.91
  WS02004402           JUNCTION     0.78     2.20     8.16     0  01:34        1.86
  WS02004403           JUNCTION     0.78     2.11     8.04     0  01:34        1.78
  WS02004404           JUNCTION     0.84     2.13     7.98     0  01:34        1.79
  WS02004405           JUNCTION     0.83     2.02     7.87     0  01:34        1.72
  WS02004406           JUNCTION     0.82     2.02     7.85     0  01:34        1.57
  WS02004407           JUNCTION     0.26     0.96     7.27     0  01:38        0.94
  WS02004409           JUNCTION     0.53     1.41     7.18     0  01:38        1.40
  WS02004410           JUNCTION     0.54     1.32     7.04     0  01:36        1.30
  WS02004411           JUNCTION     0.54     1.52     7.20     0  01:36        1.20
  WS02004412           JUNCTION     0.54     1.27     6.91     0  01:36        1.10
  WS02004413           JUNCTION     0.68     1.94     7.41     0  01:36        1.14
  WS02006109           JUNCTION     0.97     2.64     9.26     0  01:34        2.64
  WS02006110           JUNCTION     0.91     2.76     9.34     0  01:34        2.38
  WS02006111           JUNCTION     0.42     2.68     9.39     0  01:34        1.83
  WS02006112           JUNCTION     0.97     2.68     8.56     0  01:34        2.49
  WS02006113           JUNCTION     0.50     2.73     9.62     0  01:34        1.87
  WS02006115           JUNCTION     0.69     2.33     8.47     0  01:34        2.05
  WS02006116           JUNCTION     0.75     2.32     8.36     0  01:34        2.02
  WS02006228           JUNCTION     1.03     3.03     9.68     0  01:34        3.03
  WS02006229           JUNCTION     1.04     3.25     9.94     0  01:34        3.25
  WS02006230           JUNCTION     0.97     2.65     9.39     0  01:34        2.65
  WS02006231           JUNCTION     0.71     2.21     9.33     0  01:38        2.21
  WS02006232           JUNCTION     0.80     2.18     9.22     0  01:34        2.18
  WS02006234           JUNCTION     0.69     1.96     9.12     0  01:34        1.96
  WS02006235           JUNCTION     0.70     2.00     9.16     0  03:10        1.94
  WS02006238           JUNCTION     0.72     2.05     9.20     0  03:10        1.93
  WS02006239           JUNCTION     0.66     1.93     9.14     0  03:10        1.79
  WS02006240           JUNCTION     0.61     1.94     9.24     0  01:33        1.63
  WS02006242           JUNCTION     0.64     1.55     8.82     0  01:33        1.55
  WS02006243           JUNCTION     0.54     1.48     8.90     0  01:33        1.37
  WS02006245           JUNCTION     0.52     1.56     9.05     0  01:34        1.28
  WS02006247           JUNCTION     0.53     1.47     8.97     0  01:34        1.23
  WS02006248           JUNCTION     0.47     1.10     8.69     0  01:34        1.10
  WS02006249           JUNCTION     0.50     1.09     8.69     0  01:34        1.09
  WS02006251           JUNCTION     0.60     2.21     9.88     0  01:37        2.21
  WS02006252           JUNCTION     0.41     1.50     9.74     0  00:00        1.50
  WS02006253           JUNCTION     0.68     3.31    10.95     0  01:38        3.31
  WS02006256           JUNCTION     1.03     2.35     9.28     0  00:00        2.35
  WS02006280           JUNCTION     0.29     1.83    10.10     0  01:34        1.80
  WS02006284           JUNCTION     0.55     2.05    10.45     0  01:35        2.04
  WS02006287           JUNCTION     0.29     1.89    10.84     0  01:35        1.83
  WSF200               JUNCTION     0.23     0.57     5.80     0  01:37        0.56
  YS02001580           JUNCTION     0.09     1.05     9.59     0  01:35        0.77
  YS02001583           JUNCTION     0.12     1.14     9.64     0  01:36        0.82
  YS02001586           JUNCTION     0.20     1.13     9.30     0  01:35        1.13
  YS02001590           JUNCTION     0.30     1.40     9.26     0  01:35        1.38
  YS02001593           JUNCTION     0.23     1.46     9.32     0  01:34        1.29
  YS02001596           JUNCTION     0.31     1.80     9.22     0  01:34        1.65
  YS02001600           JUNCTION     0.38     1.87     9.00     0  01:34        1.86
  YS02001601           JUNCTION     0.57     2.06     8.90     0  01:34        2.06
  YS02001602           JUNCTION     0.48     1.87     8.77     0  01:36        1.87
  YS02001605           JUNCTION     0.45     1.78     8.68     0  01:36        1.78
  YS02001607           JUNCTION     0.44     1.68     8.53     0  01:36        1.65
  YS02001610           JUNCTION     0.48     1.68     8.48     0  01:36        1.68
  YS02001613           JUNCTION     0.44     1.70     8.54     0  01:36        1.66
  YS02001616           JUNCTION     0.37     1.61     8.52     0  01:36        1.61
  YS02001619           JUNCTION     0.35     1.61     8.54     0  01:36        1.61
  YS02001622           JUNCTION     0.34     1.58     8.49     0  01:38        1.58
  YS02001625           JUNCTION     0.59     1.78     8.38     0  01:36        1.78
  YS02001629           JUNCTION     0.46     1.85     8.40     0  01:36        1.85
  YS02001633           JUNCTION     0.54     2.08     8.53     0  01:38        2.08
  YS02001641           JUNCTION     0.52     2.07     8.51     0  01:38        2.07
  YS02001644           JUNCTION     0.51     1.92     8.35     0  01:38        1.92
  YS02001647           JUNCTION     0.30     1.81     8.42     0  01:38        1.71
  YS02001649           JUNCTION     0.35     2.05     8.44     0  01:38        1.97
  YS02001652           JUNCTION     0.24     2.16     8.76     0  01:38        2.16
  YS02001655           JUNCTION     0.18     2.20     9.05     0  01:37        2.20
  YS02001658           JUNCTION     0.13     1.77     8.91     0  01:38        1.27
  YS02001661           JUNCTION     0.15     1.55     8.95     0  01:38        1.05
  YS02001664           JUNCTION     0.06     0.74     8.66     0  01:39        0.57
  YS02001745           JUNCTION     0.06     1.98     9.50     0  01:38        0.85
  YS02001748           JUNCTION     0.12     2.27     9.35     0  01:38        1.23
  YS02001751           JUNCTION     0.15     2.20     9.08     0  01:38        1.37
  YS02001754           JUNCTION     0.21     2.20     8.81     0  01:38        1.60
  YS02001757           JUNCTION     0.36     2.21     8.47     0  01:38        1.90
  YS02001759           JUNCTION     0.31     2.20     8.57     0  01:38        1.96
  YS02001762           JUNCTION     0.30     2.15     8.55     0  01:38        2.15
  YS02001765           JUNCTION     0.28     2.10     8.55     0  01:38        2.10
  YS02001767           JUNCTION     0.28     2.03     8.52     0  01:38        2.03
  YS02001770           JUNCTION     0.29     1.95     8.45     0  01:38        1.92
  YS02001774           JUNCTION     0.35     2.00     8.43     0  01:38        1.95
  YS02001779           JUNCTION     0.19     1.68     8.37     0  01:37        1.68
  YS02001783           JUNCTION     0.24     1.26     7.40     0  01:36        1.23
  YS02001784           JUNCTION     0.26     1.18     7.25     0  01:36        1.12
  YS02001786           JUNCTION     0.22     1.08     7.11     0  01:36        0.87
  YS02001788           JUNCTION     0.15     0.64     6.61     0  01:37        0.62
  YS02001790           JUNCTION     0.18     0.73     6.37     0  01:38        0.72
  YS02001791           JUNCTION     0.12     0.44     5.91     0  01:38        0.43
  YS02001793           JUNCTION     0.06     0.31     5.14     0  01:40        0.29
  YS02001882           JUNCTION     0.30     1.83     8.55     0  01:36        1.68
  YS02001884           JUNCTION     0.39     1.93     8.55     0  01:36        1.77
  YS02001887           JUNCTION     0.46     1.92     8.46     0  01:36        1.87
  YS02001890           JUNCTION     0.49     1.81     8.32     0  01:36        1.81
  YS02001895           JUNCTION     0.27     1.73     8.47     0  01:36        1.57
  YS02001898           JUNCTION     0.28     1.77     8.51     0  01:36        1.56
  YS02001901           JUNCTION     0.39     1.75     8.36     0  01:36        1.67
  YS02001904           JUNCTION     0.37     1.68     8.31     0  01:37        1.64
  YS02001907           JUNCTION     0.68     1.96     8.25     0  01:36        1.96
  YS02001910           JUNCTION     0.48     2.10     8.61     0  01:37        2.02
  YS02001915           JUNCTION     0.30     2.00     8.72     0  01:37        2.00
  YS02001918           JUNCTION     0.16     1.81     8.88     0  01:37        1.81
  YS02001920           JUNCTION     0.24     2.14     9.15     0  01:37        1.63
  YS02001923           JUNCTION     0.12     2.03     9.29     0  01:37        1.34
  YS02001926           JUNCTION     0.16     1.90     9.35     0  01:37        1.08
  YS02001929           JUNCTION     0.09     1.78     9.47     0  01:37        1.19
  YS02006553           JUNCTION     0.68     1.99     8.27     0  01:37        1.98
  YS02006556           JUNCTION     0.65     2.01     8.32     0  01:38        2.01
  YS02006558           JUNCTION     0.70     2.07     8.34     0  01:38        2.07
  YS02006561           JUNCTION     0.15     0.96     7.62     0  01:36        0.90
  YS02163301           JUNCTION     0.48     1.93     8.45     0  01:38        1.93
  YS02163601           JUNCTION     0.57     2.08     8.48     0  01:38        2.08
  YS02164001           JUNCTION     0.51     2.10     8.56     0  01:38        2.10
  YSB1154              JUNCTION     0.43     2.04    11.10     0  01:38        2.04
  YSB1171              JUNCTION     0.57     1.95    10.85     0  01:35        1.95
  YSB1174              JUNCTION     0.39     1.86    10.97     0  01:38        1.86
  YSB6556              JUNCTION     0.33     1.80    10.97     0  01:38        1.80
  CC-1                 OUTFALL      0.00     0.00     0.00     0  00:00        0.00
  CC-2                 OUTFALL      0.00     0.00     0.00     0  00:00        0.00
  JK-1                 OUTFALL      0.00     0.00     0.00     0  00:00        0.00
  JK-2                 OUTFALL      0.00     0.00     0.00     0  00:00        0.00
  WSC                  OUTFALL      0.29     0.52     1.19     0  01:45        0.52
  CC-storage           STORAGE      0.79     1.59     7.09     0  02:11        1.59
  JK-storage           STORAGE      1.40     4.23     5.03     0  01:39        4.21
  XR-storage           STORAGE      7.83     9.26     7.26     0  08:00        9.26
  
  
  *******************
  Node Inflow Summary
  *******************
  
  -------------------------------------------------------------------------------------------------
                                  Maximum  Maximum                  Lateral       Total        Flow
                                  Lateral    Total  Time of Max      Inflow      Inflow     Balance
                                   Inflow   Inflow   Occurrence      Volume      Volume       Error
  Node                 Type           LPS      LPS  days hr:min    10^6 ltr    10^6 ltr     Percent
  -------------------------------------------------------------------------------------------------
  HS02004478           JUNCTION      0.00  2301.17     0  01:39           0        8.33      -0.017
  HS02004479           JUNCTION      0.00   572.92     0  01:36           0       0.793       0.061
  HS02004480           JUNCTION      0.00  2221.66     0  01:36           0        6.23       0.031
  HS02004770           JUNCTION   1355.98  1355.98     0  01:40        2.48        2.71       0.110
  HS02004777           JUNCTION      0.03   949.11     0  01:35    0.000864        1.84       0.290
  HS02004785           JUNCTION      0.15   944.75     0  01:35     0.00432        1.83       0.009
  HS02004788           JUNCTION    498.53  1039.95     0  01:35        0.96        2.79      -0.012
  HS02004792           JUNCTION   1618.40  2398.29     0  01:40         3.2        5.99       0.003
  HS02004799           JUNCTION    338.00  1676.61     0  01:36       0.538        5.57       0.048
  HS02004802           JUNCTION      0.00  1176.62     0  01:40           0        2.19       0.175
  HS02004807           JUNCTION    428.03  1176.36     0  01:40       0.658        2.23       0.180
  HS02004817           JUNCTION      0.60   770.89     0  01:41      0.0173        1.63       1.028
  HS02004824           JUNCTION    510.65   839.93     0  01:36        1.17        1.81       0.023
  HS02004830           JUNCTION      0.15   841.58     0  01:36     0.00432       0.847       0.085
  HS02004837           JUNCTION    385.98  1148.60     0  01:36       0.807        1.21       0.089
  HS02004842           JUNCTION      0.00  1063.24     0  01:36           0       0.778       1.773
  HS02004848           JUNCTION    457.53  1338.74     0  01:36        1.13        1.74       0.009
  HS02004852           JUNCTION      0.00  1357.85     0  01:36           0        1.58       0.051
  HS02004856           JUNCTION    172.22  1491.37     0  01:37       0.272        1.85       0.094
  HS02004862           JUNCTION    214.22  1536.54     0  01:37       0.481        2.33      -0.005
  HS02004870           JUNCTION    231.08  1754.62     0  01:37       0.361        2.69      -0.030
  HS02004876           JUNCTION    220.81  1763.60     0  01:37       0.373        3.06       0.022
  HS02004881           JUNCTION    127.17  1887.52     0  01:37        0.19        3.25       0.003
  HS02004901           JUNCTION    335.80   542.79     0  01:42       0.554       0.842       0.213
  WS02001211           JUNCTION      7.35   352.75     0  01:40       0.212        5.45       0.608
  WS02001212           JUNCTION      0.00   444.47     0  01:38           0        5.43       0.289
  WS02001213           JUNCTION      0.00   375.42     0  01:38           0        5.42       0.321
  WS02003059           JUNCTION      0.00   454.33     0  01:37           0        5.43       0.588
  WS02003060           JUNCTION     16.53  1578.18     0  01:44       0.476        14.2       0.105
  WS02003066           JUNCTION      0.00  1335.26     0  01:38           0        8.36       0.020
  WS02003067           JUNCTION      0.00  1307.42     0  01:38           0        8.37       0.054
  WS02003069           JUNCTION      0.32  1535.27     0  01:43     0.00922        14.2       0.112
  WS02003072           JUNCTION      0.00  1525.48     0  01:43           0        14.2       0.150
  WS02003073           JUNCTION      1.82  1531.61     0  01:44      0.0524        14.2       0.155
  WS02004138           JUNCTION      0.00   380.00     0  00:00           0        5.25       0.054
  WS02004139           JUNCTION      0.32   323.76     0  01:39     0.00924        5.26       0.508
  WS02004401           JUNCTION      0.00  1335.35     0  01:37           0        8.48       0.127
  WS02004402           JUNCTION      0.00  1335.08     0  01:37           0        8.47       0.129
  WS02004403           JUNCTION      0.00  1335.19     0  01:37           0        8.45       0.125
  WS02004404           JUNCTION      0.16  1334.62     0  01:37     0.00467        8.45       0.104
  WS02004405           JUNCTION      0.04  1335.49     0  01:36      0.0011        8.44       0.150
  WS02004406           JUNCTION      0.00  1335.13     0  01:36           0        8.43       0.255
  WS02004407           JUNCTION      0.00  1335.23     0  01:36           0        8.41       0.020
  WS02004409           JUNCTION      0.00  1318.38     0  01:35           0        8.41       0.039
  WS02004410           JUNCTION      0.00  1307.35     0  01:38           0         8.4       0.061
  WS02004411           JUNCTION      0.00  1307.09     0  01:38           0         8.4       0.074
  WS02004412           JUNCTION      0.00  1307.12     0  01:38           0        8.39       0.095
  WS02004413           JUNCTION      0.00  1307.49     0  01:38           0        8.38       0.168
  WS02006109           JUNCTION      1.23  1287.76     0  01:38      0.0354         8.3       0.090
  WS02006110           JUNCTION      0.00  1201.85     0  01:34           0        8.06       0.096
  WS02006111           JUNCTION      0.00  1152.72     0  01:34           0        8.05      -0.001
  WS02006112           JUNCTION    272.84  1334.35     0  01:37       0.455        8.51       0.224
  WS02006113           JUNCTION      0.00  1201.59     0  01:34           0        8.05       0.024
  WS02006115           JUNCTION      0.00  1334.48     0  01:37           0        8.49       0.090
  WS02006116           JUNCTION      0.00  1335.03     0  01:36           0        8.48       0.025
  WS02006228           JUNCTION      0.00  1286.70     0  01:39           0        8.27       0.049
  WS02006229           JUNCTION      0.00  2302.60     0  01:39           0        10.6       0.081
  WS02006230           JUNCTION     10.28  1024.90     0  01:38       0.296        4.55       0.161
  WS02006231           JUNCTION      0.00   497.23     0  03:25           0        3.34      -0.034
  WS02006232           JUNCTION      0.00   497.61     0  03:25           0        3.32       0.188
  WS02006234           JUNCTION      0.00   519.42     0  03:55           0        3.28      -0.360
  WS02006235           JUNCTION      0.00   525.90     0  03:55           0        3.31       0.368
  WS02006238           JUNCTION      0.00   415.83     0  01:50           0        3.03      -0.146
  WS02006239           JUNCTION      0.00   415.27     0  01:39           0        2.94      -0.250
  WS02006240           JUNCTION      0.00   414.88     0  01:39           0         2.9      -0.007
  WS02006242           JUNCTION      0.00   434.12     0  01:33           0        2.89      -0.006
  WS02006243           JUNCTION      0.00   533.81     0  01:33           0         2.5      -0.208
  WS02006245           JUNCTION      0.00   414.88     0  03:23           0         2.5       0.539
  WS02006247           JUNCTION      0.00   520.13     0  01:34           0         2.5      -0.036
  WS02006248           JUNCTION      0.00   626.45     0  01:34           0        2.66      -0.120
  WS02006249           JUNCTION      0.00  1407.25     0  01:38           0        6.03       0.129
  WS02006251           JUNCTION      0.08  1648.14     0  01:38     0.00222        6.15       0.013
  WS02006252           JUNCTION      0.00   546.23     0  01:42           0         3.2      -0.580
  WS02006253           JUNCTION     34.45  1640.96     0  01:38       0.046        3.36      -0.022
  WS02006256           JUNCTION      0.00   300.00     0  00:00           0        1.21      -2.543
  WS02006280           JUNCTION      0.00  2301.33     0  01:39           0        8.32      -0.024
  WS02006284           JUNCTION      0.10  2301.17     0  01:38     0.00275        8.32       0.024
  WS02006287           JUNCTION      0.00  2302.11     0  01:39           0        8.32       0.030
  WSF200               JUNCTION      0.00  1329.05     0  01:39           0        8.36       0.009
  YS02001580           JUNCTION      0.00   258.98     0  01:35           0     0.00481      -1.172
  YS02001583           JUNCTION      0.00   284.05     0  01:35           0      0.0148     -12.347
  YS02001586           JUNCTION    584.17   584.31     0  01:43        1.52        1.54       0.111
  YS02001590           JUNCTION      0.00   318.09     0  01:54           0        1.27      -0.035
  YS02001593           JUNCTION      0.00   318.03     0  02:02           0        1.27       0.005
  YS02001596           JUNCTION      0.00   318.05     0  01:59           0        1.27      -0.003
  YS02001600           JUNCTION      0.00   318.03     0  02:03           0        1.27      -0.001
  YS02001601           JUNCTION   1105.39  1422.79     0  01:41        2.11        3.39       0.022
  YS02001602           JUNCTION      0.00   590.04     0  01:35           0        2.17       0.014
  YS02001605           JUNCTION      0.00   589.92     0  01:35           0        2.06       0.015
  YS02001607           JUNCTION      0.00   589.79     0  01:35           0        2.06       0.079
  YS02001610           JUNCTION      0.00   563.32     0  01:35           0        2.15       0.106
  YS02001613           JUNCTION      0.00   536.34     0  01:35           0        1.71       0.079
  YS02001616           JUNCTION      0.00   467.62     0  01:35           0        1.71       0.013
  YS02001619           JUNCTION   1030.89  1030.89     0  01:42        2.44        4.05      -0.020
  YS02001622           JUNCTION      0.00   887.31     0  01:39           0        3.96      -0.003
  YS02001625           JUNCTION      0.00  1143.74     0  01:43           0        4.07       0.221
  YS02001629           JUNCTION      0.00   824.17     0  02:08           0        3.26       0.014
  YS02001633           JUNCTION    821.10  1360.64     0  01:36        1.54        4.67       0.071
  YS02001641           JUNCTION      0.00  1351.35     0  01:36           0        4.55       0.060
  YS02001644           JUNCTION    736.23  1924.70     0  01:37        1.33        5.87       0.057
  YS02001647           JUNCTION      0.00  1927.70     0  01:36           0        5.73       0.004
  YS02001649           JUNCTION      0.00  2253.38     0  01:37           0        6.95       0.012
  YS02001652           JUNCTION      0.00   908.85     0  01:39           0        1.22      -0.122
  YS02001655           JUNCTION      0.15   907.51     0  01:39     0.00443        1.22      -0.186
  YS02001658           JUNCTION      0.00   906.71     0  01:39           0        1.21      -0.055
  YS02001661           JUNCTION      0.00   878.62     0  01:39           0        1.21      -0.000
  YS02001664           JUNCTION    716.79   716.79     0  01:39        1.21        1.21      -0.012
  YS02001745           JUNCTION    483.16   692.41     0  01:38       0.737       0.739       0.230
  YS02001748           JUNCTION      0.04   825.74     0  01:38      0.0013       0.743      -0.484
  YS02001751           JUNCTION      0.01   668.73     0  01:39    0.000317       0.751       0.103
  YS02001754           JUNCTION      0.26   672.06     0  01:39     0.00749       0.763      -0.281
  YS02001757           JUNCTION      0.00  3545.35     0  01:39           0        10.2       0.059
  YS02001759           JUNCTION    664.35  1472.34     0  01:38        1.02        2.53      -0.008
  YS02001762           JUNCTION      0.00   812.27     0  01:38           0        1.51      -0.006
  YS02001765           JUNCTION      0.00   814.26     0  01:38           0        1.51      -0.000
  YS02001767           JUNCTION      0.54   816.78     0  01:38      0.0154        1.51      -0.038
  YS02001770           JUNCTION    928.73   928.73     0  01:40        1.56         1.6      -0.039
  YS02001774           JUNCTION      0.00   704.97     0  01:37           0       0.121       1.036
  YS02001779           JUNCTION      0.01   729.98     0  01:37    0.000144      0.0768      -1.534
  YS02001783           JUNCTION      0.00  1164.84     0  01:38           0        3.85       0.006
  YS02001784           JUNCTION      1.06  1165.36     0  01:38      0.0305        3.88       0.013
  YS02001786           JUNCTION      0.06  1166.00     0  01:38     0.00162        3.89       0.018
  YS02001788           JUNCTION      0.07  1166.93     0  01:38     0.00204        3.89       0.007
  YS02001790           JUNCTION      0.15  1191.82     0  01:37     0.00446        3.89       0.014
  YS02001791           JUNCTION      0.00  1294.71     0  01:38           0        3.89      -0.023
  YS02001793           JUNCTION      0.00  1251.33     0  01:40           0        3.89       0.007
  YS02001882           JUNCTION      0.00   118.18     0  01:36           0      0.0129       2.971
  YS02001884           JUNCTION      0.00   159.21     0  01:36           0      0.0485       5.006
  YS02001887           JUNCTION    740.89   745.43     0  01:38        1.07         1.1       0.413
  YS02001890           JUNCTION      0.00   747.46     0  01:38           0        1.06       0.469
  YS02001895           JUNCTION      0.00   632.92     0  01:37           0       0.996       0.133
  YS02001898           JUNCTION      0.00   631.34     0  01:37           0       0.995      -0.018
  YS02001901           JUNCTION      0.00   626.17     0  01:37           0       0.998       0.346
  YS02001904           JUNCTION      0.00   623.70     0  01:37           0        1.01       0.286
  YS02001907           JUNCTION      0.00  1753.46     0  01:38           0        3.34       0.541
  YS02001910           JUNCTION      0.00  1208.76     0  01:38           0        2.35       0.312
  YS02001915           JUNCTION    801.29  1208.75     0  01:38        1.48         2.4       0.051
  YS02001918           JUNCTION      0.00   899.94     0  01:37           0       0.954      -0.046
  YS02001920           JUNCTION      2.87   817.32     0  01:37      0.0827       0.924       0.090
  YS02001923           JUNCTION      0.04  1124.21     0  01:37     0.00109       0.822      -0.131
  YS02001926           JUNCTION      0.05  1408.10     0  01:37      0.0015       0.801      -0.245
  YS02001929           JUNCTION    380.26   978.19     0  01:37       0.778       0.784      -0.299
  YS02006553           JUNCTION      0.00   791.69     0  01:58           0        2.35       0.510
  YS02006556           JUNCTION      0.00   791.91     0  01:58           0        2.36       0.343
  YS02006558           JUNCTION    949.00  1205.63     0  01:36        1.56        3.89       0.097
  YS02006561           JUNCTION      0.00  1213.72     0  01:36           0        3.85      -0.002
  YS02163301           JUNCTION      0.00   828.83     0  02:09           0        3.25       0.041
  YS02163601           JUNCTION      0.11  1358.85     0  01:36     0.00317        4.54       0.104
  YS02164001           JUNCTION      0.00  1356.29     0  01:36           0        4.54       0.049
  YSB1154              JUNCTION    383.30   383.30     0  01:40       0.643       0.643       0.225
  YSB1171              JUNCTION      0.00   877.90     0  01:40           0        1.19       0.529
  YSB1174              JUNCTION    346.55   346.55     0  01:38       0.489        0.49       0.253
  YSB6556              JUNCTION      0.00   383.41     0  01:39           0       0.644       0.175
  CC-1                 OUTFALL       0.00   683.00     0  00:00           0        4.83       0.000
  CC-2                 OUTFALL       0.00   683.00     0  00:00           0        3.15       0.000
  JK-1                 OUTFALL       0.00  1000.00     0  00:00           0        1.83       0.000
  JK-2                 OUTFALL       0.00  1000.00     0  00:00           0       0.987       0.000
  WSC                  OUTFALL       0.00  1533.02     0  01:45           0        14.2       0.000
  CC-storage           STORAGE       0.00  3544.21     0  01:39           0        12.5      -0.259
  JK-storage           STORAGE       0.00  1251.61     0  01:55           0        4.04      -0.430
  XR-storage           STORAGE     200.00   200.00     0  00:00        5.76        6.36       0.001
  
  
  **********************
  Node Surcharge Summary
  **********************
  
  Surcharging occurs when water rises above the top of the highest conduit.
  ---------------------------------------------------------------------
                                               Max. Height   Min. Depth
                                   Hours       Above Crown    Below Rim
  Node                 Type      Surcharged         Meters       Meters
  ---------------------------------------------------------------------
  HS02004478           JUNCTION        0.48          0.940        0.000
  HS02004479           JUNCTION        0.61          0.956        0.094
  HS02004480           JUNCTION        0.64          1.100        0.000
  HS02004770           JUNCTION        0.56          0.720        0.000
  HS02004777           JUNCTION        0.57          0.780        0.000
  HS02004785           JUNCTION        0.51          0.790        0.000
  HS02004788           JUNCTION        0.50          0.720        0.000
  HS02004792           JUNCTION        0.62          0.900        0.000
  HS02004799           JUNCTION        0.72          1.060        0.000
  HS02004802           JUNCTION        0.64          1.198        0.012
  HS02004807           JUNCTION        0.63          1.220        0.000
  HS02004817           JUNCTION        1.18          1.717        0.023
  HS02004824           JUNCTION        0.50          1.287        0.023
  HS02004830           JUNCTION        0.47          1.288        0.042
  HS02004837           JUNCTION        0.43          1.213        0.127
  HS02004842           JUNCTION        0.56          1.520        0.000
  HS02004848           JUNCTION        0.41          1.279        0.091
  HS02004852           JUNCTION        0.44          1.330        0.090
  HS02004856           JUNCTION        0.42          1.290        0.010
  HS02004862           JUNCTION        0.46          1.300        0.000
  HS02004870           JUNCTION        0.48          1.400        0.000
  HS02004876           JUNCTION        0.55          1.560        0.000
  HS02004881           JUNCTION        0.53          1.450        0.000
  HS02004901           JUNCTION        0.57          0.720        0.000
  WS02004401           JUNCTION        1.62          1.259        0.401
  WS02004402           JUNCTION        1.65          1.204        0.536
  WS02004403           JUNCTION        1.65          1.109        0.921
  WS02004404           JUNCTION        1.73          1.135        1.645
  WS02004405           JUNCTION        1.72          1.020        1.780
  WS02004406           JUNCTION        1.71          1.019        1.431
  WS02004409           JUNCTION        0.86          0.408        1.952
  WS02004410           JUNCTION        0.84          0.324        2.216
  WS02004411           JUNCTION        0.81          0.524        2.006
  WS02004412           JUNCTION        0.71          0.274        2.036
  WS02004413           JUNCTION        1.30          0.939        1.261
  WS02006109           JUNCTION        2.04          1.820        0.000
  WS02006110           JUNCTION        1.86          1.850        0.000
  WS02006111           JUNCTION        1.16          1.870        0.000
  WS02006112           JUNCTION        1.95          1.680        0.000
  WS02006113           JUNCTION        1.21          1.930        0.000
  WS02006115           JUNCTION        1.53          1.318        0.932
  WS02006116           JUNCTION        1.55          1.256        1.034
  WS02006228           JUNCTION        2.03          2.200        0.000
  WS02006229           JUNCTION        0.85          1.070        0.000
  WS02006230           JUNCTION        1.75          1.570        0.000
  WS02006231           JUNCTION        1.79          1.502        0.028
  WS02006232           JUNCTION        1.94          1.480        0.000
  WS02006234           JUNCTION        1.83          1.240        0.000
  WS02006235           JUNCTION        1.88          1.290        0.000
  WS02006238           JUNCTION        1.91          1.335        0.095
  WS02006239           JUNCTION        1.84          1.188        0.102
  WS02006240           JUNCTION        1.83          1.233        0.157
  WS02006242           JUNCTION        1.89          0.820        0.000
  WS02006243           JUNCTION        1.80          0.770        0.000
  WS02006245           JUNCTION        1.80          0.850        0.000
  WS02006247           JUNCTION        1.80          0.760        0.000
  WS02006248           JUNCTION        1.77          0.380        0.000
  WS02006249           JUNCTION        1.78          0.390        0.000
  WS02006251           JUNCTION        1.71          1.180        0.000
  WS02006252           JUNCTION        2.05          1.100        0.000
  WS02006253           JUNCTION        1.71          2.267        0.213
  WS02006256           JUNCTION        7.16          2.050        0.000
  WS02006280           JUNCTION        0.72          0.780        0.000
  WS02006284           JUNCTION        0.65          0.769        0.031
  WS02006287           JUNCTION        0.57          0.890        0.000
  YS02001580           JUNCTION        0.58          0.450        0.000
  YS02001583           JUNCTION        0.59          0.500        0.000
  YS02001586           JUNCTION        0.73          0.510        0.000
  YS02001590           JUNCTION        0.80          0.750        0.000
  YS02001593           JUNCTION        0.80          0.840        0.000
  YS02001596           JUNCTION        0.90          1.070        0.000
  YS02001600           JUNCTION        1.03          1.190        0.000
  YS02001601           JUNCTION        1.43          1.440        0.000
  YS02001602           JUNCTION        1.28          1.270        0.000
  YS02001605           JUNCTION        1.22          1.180        0.000
  YS02001607           JUNCTION        0.77          0.680        0.000
  YS02001610           JUNCTION        0.80          0.680        0.000
  YS02001613           JUNCTION        0.77          0.700        0.000
  YS02001616           JUNCTION        0.73          0.610        0.000
  YS02001619           JUNCTION        0.72          0.610        0.000
  YS02001622           JUNCTION        0.71          0.581        0.039
  YS02001625           JUNCTION        0.88          0.780        0.000
  YS02001629           JUNCTION        0.66          0.470        0.000
  YS02001633           JUNCTION        0.90          1.060        0.000
  YS02001641           JUNCTION        0.86          1.072        0.028
  YS02001644           JUNCTION        0.83          0.920        0.000
  YS02001647           JUNCTION        0.64          0.811        0.089
  YS02001649           JUNCTION        0.77          1.050        0.000
  YS02001652           JUNCTION        0.56          1.130        0.000
  YS02001655           JUNCTION        0.37          1.200        0.000
  YS02001658           JUNCTION        0.16          0.766        0.534
  YS02001661           JUNCTION        0.01          0.476        0.914
  YS02001745           JUNCTION        0.01          0.983        0.367
  YS02001748           JUNCTION        0.03          1.190        0.000
  YS02001751           JUNCTION        0.24          1.200        0.000
  YS02001754           JUNCTION        0.44          1.150        0.000
  YS02001757           JUNCTION        0.84          1.210        0.000
  YS02001759           JUNCTION        0.74          1.202        0.008
  YS02001762           JUNCTION        0.70          1.150        0.000
  YS02001765           JUNCTION        0.65          1.100        0.000
  YS02001767           JUNCTION        0.61          1.030        0.000
  YS02001770           JUNCTION        0.57          0.920        0.000
  YS02001774           JUNCTION        0.68          1.003        0.047
  YS02001779           JUNCTION        0.43          0.680        0.000
  YS02001783           JUNCTION        0.53          0.462        1.138
  YS02001784           JUNCTION        0.50          0.380        1.110
  YS02001786           JUNCTION        0.41          0.278        1.152
  YS02001882           JUNCTION        0.47          0.830        0.000
  YS02001884           JUNCTION        0.48          0.870        0.000
  YS02001887           JUNCTION        0.52          0.868        0.082
  YS02001890           JUNCTION        0.53          0.760        0.000
  YS02001895           JUNCTION        0.46          0.727        0.023
  YS02001898           JUNCTION        0.46          0.740        0.000
  YS02001901           JUNCTION        0.51          0.752        0.118
  YS02001904           JUNCTION        0.50          0.676        0.174
  YS02001907           JUNCTION        0.70          0.950        0.000
  YS02001910           JUNCTION        0.55          1.100        0.000
  YS02001915           JUNCTION        0.47          1.000        0.000
  YS02001918           JUNCTION        0.39          0.810        0.000
  YS02001920           JUNCTION        0.41          1.140        0.000
  YS02001923           JUNCTION        0.03          0.820        0.000
  YS02001926           JUNCTION        0.04          0.900        0.000
  YS02001929           JUNCTION        0.01          0.780        0.000
  YS02006553           JUNCTION        0.71          0.990        0.200
  YS02006556           JUNCTION        0.62          0.972        0.378
  YS02006558           JUNCTION        0.62          0.972        0.428
  YS02006561           JUNCTION        0.36          0.161        0.989
  YS02163301           JUNCTION        0.89          0.928        0.102
  YS02163601           JUNCTION        0.93          1.080        0.000
  YS02164001           JUNCTION        0.86          1.100        0.000
  YSB1154              JUNCTION        0.83          1.341        0.059
  YSB1171              JUNCTION        0.84          1.100        0.000
  YSB1174              JUNCTION        0.75          1.165        0.085
  YSB6556              JUNCTION        0.69          1.100        0.000
  
  
  *********************
  Node Flooding Summary
  *********************
  
  Flooding refers to all water that overflows a node, whether it ponds or not.
  --------------------------------------------------------------------------
                                                             Total   Maximum
                                 Maximum   Time of Max       Flood    Ponded
                        Hours       Rate    Occurrence      Volume     Depth
  Node                 Flooded       LPS   days hr:min    10^6 ltr    Meters
  --------------------------------------------------------------------------
  HS02004478              0.01    172.59      0  01:35       0.000     0.000
  HS02004480              0.01     41.28      0  01:35       0.000     0.000
  HS02004770              0.33    936.59      0  01:39       0.586     0.000
  HS02004777              0.01     51.05      0  01:35       0.001     0.000
  HS02004785              0.01    310.84      0  01:35       0.001     0.000
  HS02004788              0.01    609.16      0  01:35       0.008     0.000
  HS02004792              0.35   1255.85      0  01:40       0.958     0.000
  HS02004799              0.17    277.51      0  01:38       0.068     0.000
  HS02004807              0.01     33.25      0  01:36       0.000     0.000
  HS02004842              0.01     35.31      0  01:37       0.000     0.000
  HS02004862              0.01    227.44      0  01:37       0.004     0.000
  HS02004870              0.01    331.31      0  01:37       0.001     0.000
  HS02004876              0.01     57.73      0  01:37       0.000     0.000
  HS02004881              0.01    901.22      0  01:37       0.005     0.000
  HS02004901              0.42    542.79      0  01:42       0.606     0.000
  WS02006109              0.42    273.27      0  01:39       0.228     0.000
  WS02006110              0.01     59.47      0  01:34       0.000     0.000
  WS02006111              0.01    357.19      0  01:34       0.001     0.000
  WS02006112              0.01    143.46      0  01:34       0.001     0.000
  WS02006113              0.01     51.22      0  01:34       0.000     0.000
  WS02006228              0.01     36.69      0  01:34       0.000     0.000
  WS02006229              0.01    176.89      0  01:34       0.000     0.000
  WS02006230              0.66    572.02      0  01:38       0.934     0.000
  WS02006232              0.16      0.81      0  01:38       0.000     0.000
  WS02006234              0.73    128.92      0  01:37       0.294     0.000
  WS02006235              0.01      9.48      0  03:10       0.000     0.000
  WS02006242              0.84    363.07      0  01:33       0.375     0.000
  WS02006243              0.01    398.39      0  01:33       0.001     0.000
  WS02006245              0.01    232.41      0  01:34       0.000     0.000
  WS02006247              0.01    472.88      0  01:34       0.002     0.000
  WS02006248              1.03    539.76      0  01:34       1.016     0.000
  WS02006249              1.71   1407.11      0  01:38       4.231     0.000
  WS02006251              0.01    128.23      0  01:37       0.001     0.000
  WS02006252              0.47    545.52      0  01:42       0.428     0.000
  WS02006256              1.11    294.82      0  01:35       0.705     0.000
  WS02006280              0.01    354.96      0  01:34       0.000     0.000
  WS02006287              0.01     77.85      0  01:35       0.000     0.000
  YS02001580              0.01    198.40      0  01:35       0.001     0.000
  YS02001583              0.01    183.10      0  01:36       0.001     0.000
  YS02001586              0.45    266.82      0  01:43       0.250     0.000
  YS02001590              0.01     12.96      0  01:35       0.000     0.000
  YS02001593              0.01     52.53      0  01:34       0.000     0.000
  YS02001596              0.01     22.52      0  01:34       0.000     0.000
  YS02001600              0.01     21.08      0  01:34       0.000     0.000
  YS02001601              0.66   1024.96      0  01:41       1.212     0.000
  YS02001602              0.55     62.00      0  02:01       0.112     0.000
  YS02001605              0.01     10.83      0  01:36       0.000     0.000
  YS02001607              0.01    287.87      0  01:36       0.002     0.000
  YS02001610              0.48    514.52      0  01:43       0.528     0.000
  YS02001613              0.01     28.49      0  01:36       0.000     0.000
  YS02001616              0.01     67.77      0  01:36       0.000     0.000
  YS02001619              0.01    130.59      0  01:36       0.000     0.000
  YS02001625              0.45   1143.53      0  01:43       0.918     0.000
  YS02001629              0.08    205.46      0  01:39       0.034     0.000
  YS02001633              0.01      2.03      0  01:38       0.000     0.000
  YS02001644              0.13    602.11      0  01:39       0.129     0.000
  YS02001649              0.01     74.62      0  01:38       0.001     0.000
  YS02001652              0.01     29.18      0  01:38       0.000     0.000
  YS02001655              0.01    368.09      0  01:37       0.001     0.000
  YS02001748              0.01     68.51      0  01:38       0.000     0.000
  YS02001751              0.01     36.51      0  01:38       0.000     0.000
  YS02001754              0.01     57.48      0  01:38       0.000     0.000
  YS02001757              0.01     35.06      0  01:38       0.000     0.000
  YS02001762              0.01     17.28      0  01:38       0.000     0.000
  YS02001765              0.01     11.35      0  01:38       0.000     0.000
  YS02001767              0.01      4.09      0  01:38       0.000     0.000
  YS02001770              0.01     41.82      0  01:38       0.000     0.000
  YS02001779              0.11    669.76      0  01:37       0.058     0.000
  YS02001882              0.01     43.42      0  01:36       0.000     0.000
  YS02001884              0.01     57.13      0  01:36       0.000     0.000
  YS02001890              0.13    249.94      0  01:36       0.059     0.000
  YS02001898              0.01    112.29      0  01:36       0.000     0.000
  YS02001907              0.34   1532.77      0  01:38       0.977     0.000
  YS02001910              0.01     31.43      0  01:37       0.000     0.000
  YS02001915              0.01     51.25      0  01:37       0.000     0.000
  YS02001918              0.01    355.79      0  01:37       0.004     0.000
  YS02001920              0.01    103.25      0  01:37       0.000     0.000
  YS02001923              0.01    200.28      0  01:37       0.001     0.000
  YS02001926              0.01    597.07      0  01:37       0.004     0.000
  YS02001929              0.01    763.95      0  01:37       0.004     0.000
  YS02163601              0.01      3.83      0  01:38       0.000     0.000
  YS02164001              0.01      2.98      0  01:38       0.000     0.000
  YSB1171                 0.26    877.68      0  01:40       0.458     0.000
  YSB6556                 0.01      0.44      0  01:38       0.000     0.000
  
  
  **********************
  Storage Volume Summary
  **********************
  
  --------------------------------------------------------------------------------------------------
                         Average     Avg  Evap Exfil       Maximum     Max    Time of Max    Maximum
                          Volume    Pcnt  Pcnt  Pcnt        Volume    Pcnt     Occurrence    Outflow
  Storage Unit           1000 m3    Full  Loss  Loss       1000 m3    Full    days hr:min        LPS
  --------------------------------------------------------------------------------------------------
  CC-storage               2.204      34     0     0         4.438      69       0  02:11    1783.53
  JK-storage               0.070      24     0     0         0.213      73       0  01:39    2300.00
  XR-storage               0.939      65     0     0         1.111      77       0  08:00     380.00
  
  
  ***********************
  Outfall Loading Summary
  ***********************
  
  -----------------------------------------------------------
                         Flow       Avg       Max       Total
                         Freq      Flow      Flow      Volume
  Outfall Node           Pcnt       LPS       LPS    10^6 ltr
  -----------------------------------------------------------
  CC-1                  38.86    683.00    683.00       4.828
  CC-2                  24.94    683.00    683.00       3.149
  JK-1                   8.20   1000.00   1000.00       1.828
  JK-2                   4.91   1000.00   1000.00       0.987
  WSC                   99.95    617.93   1533.02      14.168
  -----------------------------------------------------------
  System                35.37   3983.93   4826.69      24.959
  
  
  ********************
  Link Flow Summary
  ********************
  
  -----------------------------------------------------------------------------
                                 Maximum  Time of Max   Maximum    Max/    Max/
                                  |Flow|   Occurrence   |Veloc|    Full    Full
  Link                 Type          LPS  days hr:min     m/sec    Flow   Depth
  -----------------------------------------------------------------------------
  1                    CONDUIT   1533.02     0  01:45      3.71    0.53    0.52
  HS02004478WS02006287 CONDUIT   2302.11     0  01:39      2.87    0.64    1.00
  HS02004479HS02004480 CONDUIT    571.28     0  01:36      0.82    0.55    1.00
  HS02004480HS02004478 CONDUIT   2223.74     0  01:36      3.18    9.37    1.00
  HS02004770HS02004777 CONDUIT    949.08     0  01:35      1.36    1.74    1.00
  HS02004777HS02004785 CONDUIT    944.60     0  01:35      1.45    1.16    1.00
  HS02004785HS02004788 CONDUIT    764.11     0  01:35      1.34    5.76    1.00
  HS02004788HS02004792 CONDUIT    824.26     0  01:35      1.43    0.55    1.00
  HS02004792HS02004799 CONDUIT   1489.87     0  02:00      2.13    0.91    1.00
  HS02004799HS02004480 CONDUIT   1675.26     0  01:36      2.39    2.12    1.00
  HS02004802HS02004478 CONDUIT   1177.08     0  01:40      1.68    1.04    1.00
  HS02004807HS02004802 CONDUIT   1176.62     0  01:40      1.68    2.25    1.00
  HS02004817HS02004807 CONDUIT    770.91     0  01:41      1.10    0.46    1.00
  HS02004817HS02004824 CONDUIT    770.29     0  01:41      1.10    0.35    1.00
  HS02004824HS02004830 CONDUIT    841.43     0  01:36      1.21    1.10    1.00
  HS02004830HS02004837 CONDUIT    877.92     0  01:36      1.38    0.87    1.00
  HS02004837HS02004842 CONDUIT   1063.24     0  01:36      1.52    0.63    1.00
  HS02004842HS02004848 CONDUIT   1060.74     0  01:36      1.72    0.62    1.00
  HS02004848HS02004852 CONDUIT   1357.85     0  01:36      2.00    1.53    1.00
  HS02004852HS02004856 CONDUIT   1342.07     0  01:37      1.96    1.54    1.00
  HS02004856HS02004862 CONDUIT   1369.32     0  01:37      2.01    1.37    1.00
  HS02004862HS02004870 CONDUIT   1542.69     0  01:37      2.37    1.67    1.00
  HS02004870HS02004876 CONDUIT   1566.75     0  01:37      2.24    1.04    1.00
  HS02004876HS02004881 CONDUIT   1766.56     0  01:37      2.54   18.79    1.00
  HS02004881HS02006253 CONDUIT   1606.68     0  01:38      2.79    0.31    1.00
  HS02004901HS02004770 CONDUIT    265.78     0  01:55      0.38    1.00    1.00
  WS02001211WS02001212 CONDUIT    310.44     0  01:43      0.54    0.24    0.73
  WS02001212WS02001213 CONDUIT    352.42     0  01:43      1.04    0.54    0.62
  WS02001213WS02003059 CONDUIT    290.13     0  01:42      0.47    0.48    0.93
  WS02003059WS02003060 CONDUIT    379.27     0  01:37      0.66    0.25    0.83
  WS02003060WS02003069 CONDUIT   1534.95     0  01:43      2.22    0.60    0.62
  WS02003066WSF200     CONDUIT   1329.05     0  01:39      3.64    0.22    0.41
  WS02003067WS02003066 CONDUIT   1335.26     0  01:38      2.07    0.43    0.59
  WS02003069WS02003072 CONDUIT   1525.48     0  01:43      1.91    0.73    0.67
  WS02003072WS02003073 CONDUIT   1529.79     0  01:44      2.07    3.30    0.62
  WS02004138WS02004139 CONDUIT    190.02     0  00:29      2.17    0.04    0.44
  WS02004139WS02001211 CONDUIT    345.40     0  01:40      0.54    0.44    0.63
  WS02004401WS02004402 CONDUIT   1335.08     0  01:37      1.70    1.60    1.00
  WS02004402WS02004403 CONDUIT   1335.19     0  01:37      1.70    1.92    1.00
  WS02004403WS02004404 CONDUIT   1334.45     0  01:37      1.70    0.96    1.00
  WS02004404WS02004405 CONDUIT   1335.45     0  01:36      1.70   13.08    1.00
  WS02004405WS02004406 CONDUIT   1335.13     0  01:36      1.70    2.63    1.00
  WS02004406WS02004407 CONDUIT   1335.23     0  01:36      2.08    0.60    0.98
  WS02004407WS02004409 CONDUIT   1318.38     0  01:35      2.20    0.47    0.98
  WS02004409WS02004410 CONDUIT   1307.35     0  01:38      1.71    1.69    1.00
  WS02004410WS02004411 CONDUIT   1307.09     0  01:38      1.66    1.79    1.00
  WS02004411WS02004412 CONDUIT   1307.12     0  01:38      1.66    1.86    1.00
  WS02004412WS02004413 CONDUIT   1307.49     0  01:38      1.66    0.88    1.00
  WS02004413WS02003067 CONDUIT   1307.42     0  01:38      2.02    0.56    0.77
  WS02006109WS02006110 CONDUIT   1201.85     0  01:34      2.39    2.31    1.00
  WS02006110WS02006113 CONDUIT   1201.59     0  01:34      2.39    1.09    1.00
  WS02006111WS02006112 CONDUIT   1123.21     0  02:00      2.23    0.53    1.00
  WS02006112WS02006115 CONDUIT   1334.48     0  01:37      1.70    0.79    1.00
  WS02006113WS02006111 CONDUIT   1152.72     0  01:34      2.71    1.38    1.00
  WS02006115WS02006116 CONDUIT   1335.03     0  01:36      1.70    1.71    1.00
  WS02006116WS02004401 CONDUIT   1335.35     0  01:37      1.70    1.84    1.00
  WS02006228WS02006109 CONDUIT   1286.53     0  01:38      2.56    5.62    1.00
  WS02006229WS02006228 CONDUIT   1286.70     0  01:39      2.56    4.26    1.00
  WS02006230WS02006229 CONDUIT   1014.63     0  01:38      2.64   22.58    1.00
  WS02006231WS02006230 CONDUIT    497.82     0  03:25      1.38    7.55    1.00
  WS02006232WS02006231 CONDUIT    497.23     0  03:25      1.29    1.04    1.00
  WS02006234WS02006232 CONDUIT    497.61     0  03:25      1.41    1.01    1.00
  WS02006235WS02006234 CONDUIT    519.42     0  03:55      1.39    5.48    1.00
  WS02006238WS02006235 CONDUIT    415.83     0  01:50      1.45    0.93    1.00
  WS02006239WS02006238 CONDUIT    415.27     0  01:39      1.11    1.33    1.00
  WS02006240WS02006239 CONDUIT    414.88     0  01:39      1.26    1.31    1.00
  WS02006242WS02006240 CONDUIT    415.06     0  01:39      1.14    1.65    1.00
  WS02006243WS02006242 CONDUIT    414.02     0  03:23      1.34    0.88    1.00
  WS02006245WS02006243 CONDUIT    414.35     0  03:23      1.39    1.23    1.00
  WS02006247WS02006245 CONDUIT    414.88     0  03:23      1.37    3.29    1.00
  WS02006248WS02006247 CONDUIT    415.14     0  03:23      1.38    0.90    1.00
  WS02006249WS02006248 CONDUIT    415.62     0  03:23      1.38    2.28    1.00
  WS02006251WS02006249 CONDUIT   1361.13     0  01:38      3.54    3.92    1.00
  WS02006252WS02006251 CONDUIT    407.84     0  03:20     26.39    1.50    1.00
  WS02006253WS02006251 CONDUIT   1648.06     0  01:38      4.28    4.94    1.00
  WS02006256WS02006235 CONDUIT    288.93     0  00:00      4.23    3.06    1.00
  WS02006280WS02006229 CONDUIT   2302.60     0  01:39      4.88    0.49    1.00
  WS02006284WS02006280 CONDUIT   2301.33     0  01:39      3.18    0.96    1.00
  WS02006287WS02006284 CONDUIT   2301.07     0  01:38      2.97    1.07    1.00
  WSF200WS02003060     CONDUIT   1495.48     0  01:37      3.06    0.33    0.51
  YS02001580YS02001583 CONDUIT    258.98     0  01:35      1.08    1.00    1.00
  YS02001583YS02001586 CONDUIT    241.73     0  01:35      1.09    0.37    1.00
  YS02001586YS02001590 CONDUIT    318.09     0  01:54      1.30    0.56    1.00
  YS02001590YS02001593 CONDUIT    318.03     0  02:02      1.12    2.00    1.00
  YS02001593YS02001596 CONDUIT    318.05     0  01:59      1.74    0.50    1.00
  YS02001596YS02001600 CONDUIT    318.03     0  02:03      1.20    0.62    1.00
  YS02001600YS02001601 CONDUIT    317.98     0  01:54      1.12    0.55    1.00
  YS02001601YS02001602 CONDUIT    590.04     0  01:35      2.09    2.13    1.00
  YS02001602YS02001605 CONDUIT    589.92     0  01:35      2.09   12.48    1.00
  YS02001605YS02001607 CONDUIT    589.79     0  01:35      2.09    3.23    1.00
  YS02001607YS02001610 CONDUIT    563.32     0  01:35      0.76    0.54    1.00
  YS02001610YS02001613 CONDUIT    536.34     0  01:35      0.72    0.62    1.00
  YS02001613YS02001616 CONDUIT    467.62     0  01:35      0.70    0.40    1.00
  YS02001616YS02001619 CONDUIT    466.41     0  02:14      0.68    0.81    1.00
  YS02001619YS02001622 CONDUIT    887.31     0  01:39      1.37    1.31    1.00
  YS02001622YS02001625 CONDUIT    888.23     0  01:39      1.13    0.47    1.00
  YS02001625YS02001629 CONDUIT    824.17     0  02:08      1.05    0.39    1.00
  YS02001629YS02163301 CONDUIT    828.83     0  02:09      1.06    1.02    1.00
  YS02001633YS02163601 CONDUIT   1358.74     0  01:36      1.73    1.43    1.00
  YS02001641YS02001644 CONDUIT   1352.04     0  01:36      1.72    4.37    1.00
  YS02001644YS02001647 CONDUIT   1927.70     0  01:36      2.45    1.13    1.00
  YS02001647YS02001649 CONDUIT   1941.75     0  01:36      2.47    1.03    1.00
  YS02001649YS02001757 CONDUIT   2257.09     0  01:37      2.87    1.37    1.00
  YS02001652YS02001649 CONDUIT    908.78     0  01:39      1.16    0.45    1.00
  YS02001655YS02001652 CONDUIT    908.85     0  01:39      1.67    0.44    1.00
  YS02001658YS02001655 CONDUIT    907.36     0  01:39      2.14    0.38    1.00
  YS02001661YS02001658 CONDUIT    906.71     0  01:39      2.54    0.36    1.00
  YS02001664YS02001661 CONDUIT    878.62     0  01:39      2.55    0.28    0.87
  YS02001745YS02001748 CONDUIT    664.36     0  01:39      2.48    0.26    1.00
  YS02001748YS02001751 CONDUIT    668.72     0  01:39      1.97    0.34    1.00
  YS02001751YS02001754 CONDUIT    671.80     0  01:39      1.70    0.32    1.00
  YS02001754YS02001757 CONDUIT    672.69     0  01:39      0.86    0.27    1.00
  YS02001757CaochengTiaoxuchi CONDUIT   3544.21     0  01:39      4.85    1.53    1.00
  YS02001759YS02001757 CONDUIT   1479.37     0  01:38      1.88    1.05    1.00
  YS02001762YS02001759 CONDUIT    814.93     0  01:38      1.04    0.94    1.00
  YS02001765YS02001762 CONDUIT    812.27     0  01:38      1.03    0.76    1.00
  YS02001767YS02001765 CONDUIT    814.26     0  01:38      1.04    1.02    1.00
  YS02001770YS02001767 CONDUIT    816.25     0  01:38      1.04    3.23    1.00
  YS02001774YS02001770 CONDUIT    704.97     0  01:37      0.90    0.45    1.00
  YS02001779YS02001774 CONDUIT    729.97     0  01:37      0.94    0.37    1.00
  YS02001783YS02001784 CONDUIT   1164.30     0  01:38      2.32    1.60    1.00
  YS02001784YS02001785 CONDUIT   1165.94     0  01:38      2.32    2.71    1.00
  YS02001786YS02001788 CONDUIT   1166.86     0  01:38      2.49    2.25    0.90
  YS02001788YS02001790 CONDUIT   1191.66     0  01:37      2.74    0.88    0.84
  YS02001790YS02001791 CONDUIT   1294.71     0  01:38      3.44    1.41    0.71
  YS02001791YS02001793 CONDUIT   1251.33     0  01:40      6.76    0.54    0.45
  YS02001793JiankangQianchi CONDUIT   1251.61     0  01:55      2.50    0.10    0.66
  YS02001882YS02001884 CONDUIT    118.18     0  01:36      0.15    0.14    1.00
  YS02001884YS02001887 CONDUIT    159.21     0  01:36      0.20    0.21    1.00
  YS02001887YS02001890 CONDUIT    747.46     0  01:38      0.95    1.28    1.00
  YS02001890YS02001895 CONDUIT    632.92     0  01:37      0.81    0.29    1.00
  YS02001895YS02001898 CONDUIT    631.34     0  01:37      0.80    1.10    1.00
  YS02001898YS02001901 CONDUIT    626.17     0  01:37      0.80    0.40    1.00
  YS02001901YS02001904 CONDUIT    623.70     0  01:37      0.79    0.97    1.00
  YS02001904YS02001907 CONDUIT    625.53     0  01:37      0.80    0.22    1.00
  YS02001907YS02006553 CONDUIT    791.69     0  01:58      0.88    0.93    1.00
  YS02001910YS02001907 CONDUIT   1209.61     0  01:38      1.54    0.68    1.00
  YS02001915YS02001910 CONDUIT   1208.76     0  01:38      1.54    0.60    1.00
  YS02001918YS02001915 CONDUIT    899.94     0  01:37      1.15    0.50    1.00
  YS02001920YS02001918 CONDUIT    814.45     0  01:37      1.04    0.79    1.00
  YS02001923YS02001920 CONDUIT    844.52     0  01:37      1.12    0.38    1.00
  YS02001926YS02001923 CONDUIT   1122.72     0  01:37      1.58    1.60    1.00
  YS02001929YS02001926 CONDUIT    676.40     0  01:37      1.27    0.32    1.00
  YS02006553YS02006556 CONDUIT    791.91     0  01:58      1.01    0.68    1.00
  YS02006556YS02006558 CONDUIT    793.44     0  01:58      1.01    0.63    1.00
  YS02006558YS02006561 CONDUIT   1213.72     0  01:36      4.30    2.68    1.00
  YS02006561YS02001783 CONDUIT   1164.84     0  01:38      2.32    0.60    1.00
  YS02163301YS02001633 CONDUIT    829.43     0  02:09      1.06    0.78    1.00
  YS02163601YS02164001 CONDUIT   1356.29     0  01:36      1.73    1.20    1.00
  YS02164001YS02001641 CONDUIT   1351.35     0  01:36      1.72    1.85    1.00
  YSB1154YSB6556       CONDUIT    383.41     0  01:39      1.00    0.69    1.00
  YSB1171HS02004479    CONDUIT    572.92     0  01:36      1.14    0.38    1.00
  YSB1174YSB1171       CONDUIT    346.60     0  01:38      0.90    0.53    1.00
  YSB6556YSB1171       CONDUIT    383.58     0  01:40      1.00    0.39    1.00
  CC-R1                PUMP       683.00     0  00:00              1.00
  CC-R2                PUMP       683.00     0  00:00              1.00
  CC-S1                PUMP       200.00     0  00:00              1.00
  CC-S2                PUMP       200.00     0  00:00              1.00
  JK-R1                PUMP      1000.00     0  00:00              1.00
  JK-R2                PUMP      1000.00     0  00:00              1.00
  JK-S                 PUMP       300.00     0  00:00              1.00
  XR-1                 PUMP        95.00     0  00:00              1.00
  XR-2                 PUMP        95.00     0  00:00              1.00
  XR-3                 PUMP        95.00     0  00:00              1.00
  XR-4                 PUMP        95.00     0  00:00              1.00
  
  
  ***************************
  Flow Classification Summary
  ***************************
  
  -------------------------------------------------------------------------------------
                      Adjusted    ---------- Fraction of Time in Flow Class ---------- 
                       /Actual         Up    Down  Sub   Sup   Up    Down  Norm  Inlet 
  Conduit               Length    Dry  Dry   Dry   Crit  Crit  Crit  Crit  Ltd   Ctrl  
  -------------------------------------------------------------------------------------
  1                       1.00   0.00  0.00  0.00  0.00  1.00  0.00  0.00  0.38  0.00
  HS02004478WS02006287    1.00   0.13  0.00  0.00  0.60  0.27  0.00  0.00  0.60  0.00
  HS02004479HS02004480    1.00   0.06  0.00  0.00  0.94  0.00  0.00  0.00  0.11  0.00
  HS02004480HS02004478    1.00   0.12  0.00  0.00  0.53  0.00  0.00  0.36  0.00  0.00
  HS02004770HS02004777    1.00   0.00  0.12  0.00  0.88  0.00  0.00  0.00  0.03  0.00
  HS02004777HS02004785    1.00   0.00  0.00  0.00  1.00  0.00  0.00  0.00  0.12  0.00
  HS02004785HS02004788    1.00   0.00  0.00  0.00  1.00  0.00  0.00  0.00  0.00  0.00
  HS02004788HS02004792    1.00   0.00  0.00  0.00  0.99  0.01  0.00  0.00  0.90  0.00
  HS02004792HS02004799    1.00   0.00  0.00  0.00  0.98  0.02  0.00  0.00  0.86  0.00
  HS02004799HS02004480    1.00   0.00  0.06  0.00  0.87  0.00  0.06  0.00  0.00  0.00
  HS02004802HS02004478    1.00   0.12  0.00  0.00  0.88  0.00  0.00  0.00  0.02  0.00
  HS02004807HS02004802    1.00   0.12  0.00  0.00  0.88  0.00  0.00  0.01  0.00  0.00
  HS02004817HS02004807    1.00   0.00  0.12  0.00  0.88  0.00  0.00  0.00  0.01  0.00
  HS02004817HS02004824    1.00   0.00  0.00  0.00  1.00  0.00  0.00  0.00  0.82  0.00
  HS02004824HS02004830    1.00   0.00  0.00  0.00  1.00  0.00  0.00  0.00  0.00  0.00
  HS02004830HS02004837    1.00   0.00  0.00  0.00  1.00  0.00  0.00  0.00  0.88  0.00
  HS02004837HS02004842    1.00   0.00  0.00  0.00  1.00  0.00  0.00  0.00  0.11  0.00
  HS02004842HS02004848    1.00   0.00  0.12  0.00  0.88  0.00  0.00  0.00  0.57  0.00
  HS02004848HS02004852    1.00   0.12  0.00  0.00  0.88  0.00  0.00  0.00  0.71  0.00
  HS02004852HS02004856    1.00   0.12  0.00  0.00  0.88  0.00  0.00  0.00  0.67  0.00
  HS02004856HS02004862    1.00   0.00  0.13  0.00  0.87  0.00  0.00  0.00  0.74  0.00
  HS02004862HS02004870    1.00   0.00  0.00  0.00  1.00  0.00  0.00  0.00  0.03  0.00
  HS02004870HS02004876    1.00   0.00  0.00  0.00  0.98  0.01  0.00  0.00  0.86  0.00
  HS02004876HS02004881    1.00   0.04  0.00  0.00  0.76  0.20  0.00  0.00  0.00  0.00
  HS02004881HS02006253    1.00   0.02  0.06  0.00  0.45  0.03  0.00  0.45  0.20  0.00
  HS02004901HS02004770    1.00   0.12  0.00  0.00  0.88  0.00  0.00  0.00  0.00  0.00
  WS02001211WS02001212    1.00   0.00  0.05  0.00  0.95  0.00  0.00  0.00  0.00  0.00
  WS02001212WS02001213    1.00   0.05  0.00  0.00  0.48  0.00  0.47  0.00  0.00  0.00
  WS02001213WS02003059    1.00   0.00  0.00  0.00  0.99  0.00  0.00  0.00  0.00  0.00
  WS02003059WS02003060    1.00   0.00  0.00  0.00  1.00  0.00  0.00  0.00  0.03  0.00
  WS02003060WS02003069    1.00   0.00  0.00  0.00  0.98  0.02  0.00  0.00  0.51  0.00
  WS02003066WSF200        1.00   0.08  0.00  0.00  0.00  0.92  0.00  0.00  0.69  0.00
  WS02003067WS02003066    1.00   0.08  0.00  0.00  0.92  0.00  0.00  0.00  0.00  0.00
  WS02003069WS02003072    1.00   0.00  0.00  0.00  1.00  0.00  0.00  0.00  0.63  0.00
  WS02003072WS02003073    1.00   0.00  0.00  0.00  0.00  0.00  0.00  1.00  0.00  0.00
  WS02004138WS02004139    1.00   0.00  0.01  0.00  0.95  0.01  0.00  0.02  0.98  0.00
  WS02004139WS02001211    1.00   0.00  0.00  0.00  0.99  0.00  0.00  0.00  0.00  0.00
  WS02004401WS02004402    1.00   0.05  0.00  0.00  0.95  0.00  0.00  0.00  0.00  0.00
  WS02004402WS02004403    1.00   0.05  0.00  0.00  0.95  0.00  0.00  0.00  0.00  0.00
  WS02004403WS02004404    1.00   0.00  0.05  0.00  0.95  0.00  0.00  0.00  0.00  0.00
  WS02004404WS02004405    1.00   0.00  0.00  0.00  1.00  0.00  0.00  0.00  0.01  0.00
  WS02004405WS02004406    1.00   0.00  0.00  0.00  1.00  0.00  0.00  0.00  0.00  0.00
  WS02004406WS02004407    1.00   0.00  0.06  0.00  0.93  0.00  0.00  0.00  0.00  0.00
  WS02004407WS02004409    1.00   0.07  0.00  0.00  0.92  0.01  0.00  0.00  0.84  0.00
  WS02004409WS02004410    1.00   0.07  0.00  0.00  0.93  0.00  0.00  0.00  0.00  0.00
  WS02004410WS02004411    1.00   0.07  0.00  0.00  0.93  0.00  0.00  0.00  0.00  0.00
  WS02004411WS02004412    1.00   0.07  0.00  0.00  0.93  0.00  0.00  0.00  0.00  0.00
  WS02004412WS02004413    1.00   0.07  0.00  0.00  0.93  0.00  0.00  0.00  0.00  0.00
  WS02004413WS02003067    1.00   0.07  0.01  0.00  0.00  0.00  0.92  0.00  0.00  0.00
  WS02006109WS02006110    1.00   0.00  0.01  0.00  0.97  0.00  0.03  0.00  0.00  0.00
  WS02006110WS02006113    1.00   0.01  0.03  0.00  0.97  0.00  0.00  0.00  0.00  0.00
  WS02006111WS02006112    1.00   0.04  0.00  0.00  0.95  0.00  0.00  0.01  0.76  0.00
  WS02006112WS02006115    1.00   0.04  0.01  0.00  0.95  0.00  0.00  0.00  0.00  0.00
  WS02006113WS02006111    1.00   0.03  0.00  0.00  0.28  0.69  0.00  0.00  0.08  0.00
  WS02006115WS02006116    1.00   0.05  0.00  0.00  0.94  0.00  0.00  0.01  0.00  0.00
  WS02006116WS02004401    1.00   0.05  0.00  0.00  0.95  0.00  0.00  0.00  0.00  0.00
  WS02006228WS02006109    1.00   0.00  0.00  0.00  1.00  0.00  0.00  0.00  0.01  0.00
  WS02006229WS02006228    1.00   0.00  0.00  0.00  0.99  0.00  0.00  0.01  0.00  0.00
  WS02006230WS02006229    1.00   0.00  0.00  0.00  0.98  0.00  0.00  0.02  0.04  0.00
  WS02006231WS02006230    1.00   0.00  0.00  0.00  0.45  0.00  0.55  0.00  0.00  0.00
  WS02006232WS02006231    1.00   0.00  0.00  0.00  0.99  0.00  0.00  0.00  0.00  0.00
  WS02006234WS02006232    1.00   0.00  0.00  0.00  1.00  0.00  0.00  0.00  0.03  0.00
  WS02006235WS02006234    1.00   0.00  0.00  0.00  0.95  0.00  0.05  0.00  0.00  0.00
  WS02006238WS02006235    1.00   0.00  0.00  0.00  1.00  0.00  0.00  0.00  0.00  0.00
  WS02006239WS02006238    1.00   0.00  0.00  0.00  1.00  0.00  0.00  0.00  0.08  0.00
  WS02006240WS02006239    1.00   0.00  0.00  0.00  0.82  0.00  0.00  0.18  0.03  0.00
  WS02006242WS02006240    1.00   0.00  0.00  0.00  0.99  0.00  0.01  0.00  0.00  0.00
  WS02006243WS02006242    1.00   0.00  0.00  0.00  1.00  0.00  0.00  0.00  0.60  0.00
  WS02006245WS02006243    1.00   0.00  0.00  0.00  0.86  0.00  0.00  0.14  0.01  0.00
  WS02006247WS02006245    1.00   0.00  0.00  0.00  0.99  0.00  0.00  0.01  0.00  0.00
  WS02006248WS02006247    1.00   0.00  0.00  0.00  1.00  0.00  0.00  0.00  0.54  0.00
  WS02006249WS02006248    1.00   0.00  0.00  0.00  0.63  0.00  0.37  0.00  0.00  0.00
  WS02006251WS02006249    1.00   0.00  0.00  0.00  1.00  0.00  0.00  0.00  0.56  0.00
  WS02006252WS02006251    1.00   0.00  0.39  0.00  0.31  0.00  0.30  0.00  0.00  0.00
  WS02006253WS02006251    1.00   0.00  0.00  0.00  1.00  0.00  0.00  0.00  0.02  0.00
  WS02006256WS02006235    1.00   0.00  0.00  0.00  0.98  0.02  0.00  0.00  0.00  0.00
  WS02006280WS02006229    1.00   0.12  0.00  0.00  0.20  0.07  0.00  0.61  0.02  0.00
  WS02006284WS02006280    1.00   0.12  0.00  0.00  0.14  0.02  0.00  0.73  0.00  0.00
  WS02006287WS02006284    1.00   0.11  0.02  0.00  0.43  0.43  0.00  0.01  0.65  0.00
  WSF200WS02003060        1.00   0.00  0.08  0.00  0.52  0.40  0.00  0.00  0.65  0.00
  YS02001580YS02001583    1.00   0.18  0.55  0.00  0.27  0.00  0.00  0.00  0.70  0.00
  YS02001583YS02001586    1.00   0.29  0.32  0.00  0.38  0.00  0.00  0.00  0.70  0.00
  YS02001586YS02001590    1.00   0.12  0.00  0.00  0.60  0.03  0.00  0.25  0.34  0.00
  YS02001590YS02001593    1.00   0.12  0.00  0.00  0.17  0.00  0.71  0.00  0.00  0.00
  YS02001593YS02001596    1.00   0.12  0.00  0.00  0.19  0.01  0.00  0.68  0.02  0.00
  YS02001596YS02001600    1.00   0.12  0.00  0.00  0.29  0.02  0.00  0.58  0.06  0.00
  YS02001600YS02001601    1.00   0.12  0.00  0.00  0.88  0.00  0.00  0.00  0.61  0.00
  YS02001601YS02001602    1.00   0.12  0.00  0.00  0.88  0.00  0.00  0.00  0.00  0.00
  YS02001602YS02001605    1.00   0.12  0.00  0.00  0.88  0.00  0.00  0.00  0.00  0.00
  YS02001605YS02001607    1.00   0.12  0.00  0.00  0.88  0.00  0.00  0.00  0.00  0.00
  YS02001607YS02001610    1.00   0.12  0.00  0.00  0.88  0.00  0.00  0.00  0.01  0.00
  YS02001610YS02001613    1.00   0.12  0.00  0.00  0.88  0.00  0.00  0.00  0.00  0.00
  YS02001613YS02001616    1.00   0.12  0.00  0.00  0.88  0.00  0.00  0.00  0.00  0.00
  YS02001616YS02001619    1.00   0.12  0.00  0.00  0.88  0.00  0.00  0.00  0.00  0.00
  YS02001619YS02001622    1.00   0.12  0.00  0.00  0.88  0.00  0.00  0.00  0.30  0.00
  YS02001622YS02001625    1.00   0.12  0.00  0.00  0.88  0.00  0.00  0.00  0.04  0.00
  YS02001625YS02001629    1.00   0.12  0.02  0.00  0.22  0.00  0.64  0.00  0.00  0.00
  YS02001629YS02163301    1.00   0.13  0.00  0.00  0.87  0.00  0.00  0.00  0.00  0.00
  YS02001633YS02163601    1.00   0.00  0.01  0.00  0.99  0.00  0.00  0.00  0.15  0.00
  YS02001641YS02001644    1.00   0.00  0.00  0.00  1.00  0.00  0.00  0.00  0.00  0.00
  YS02001644YS02001647    1.00   0.00  0.13  0.00  0.87  0.00  0.00  0.00  0.00  0.00
  YS02001647YS02001649    1.00   0.00  0.13  0.00  0.50  0.37  0.00  0.00  0.58  0.00
  YS02001649YS02001757    1.00   0.00  0.00  0.00  0.62  0.38  0.00  0.00  0.49  0.00
  YS02001652YS02001649    1.00   0.00  0.00  0.00  0.98  0.02  0.00  0.00  0.74  0.00
  YS02001655YS02001652    1.00   0.00  0.00  0.00  0.25  0.02  0.00  0.73  0.06  0.00
  YS02001658YS02001655    1.00   0.00  0.12  0.00  0.58  0.29  0.00  0.00  0.70  0.00
  YS02001661YS02001658    1.00   0.12  0.00  0.00  0.39  0.49  0.00  0.00  0.73  0.00
  YS02001664YS02001661    1.00   0.12  0.00  0.00  0.73  0.15  0.00  0.00  0.86  0.00
  YS02001745YS02001748    1.00   0.00  0.00  0.00  0.14  0.01  0.00  0.85  0.05  0.00
  YS02001748YS02001751    1.00   0.00  0.00  0.00  0.76  0.24  0.00  0.00  0.78  0.00
  YS02001751YS02001754    1.00   0.00  0.00  0.00  0.24  0.00  0.00  0.76  0.04  0.00
  YS02001754YS02001757    1.00   0.00  0.00  0.00  1.00  0.00  0.00  0.00  0.82  0.00
  YS02001757CaochengTiaoxuchi    1.00   0.00  0.00  0.00  0.97  0.03  0.00  0.00  0.81  0.00
  YS02001759YS02001757    1.00   0.00  0.00  0.00  1.00  0.00  0.00  0.00  0.62  0.00
  YS02001762YS02001759    1.00   0.00  0.00  0.00  1.00  0.00  0.00  0.00  0.03  0.00
  YS02001765YS02001762    1.00   0.00  0.00  0.00  1.00  0.00  0.00  0.00  0.74  0.00
  YS02001767YS02001765    1.00   0.00  0.00  0.00  1.00  0.00  0.00  0.00  0.00  0.00
  YS02001770YS02001767    1.00   0.00  0.00  0.00  1.00  0.00  0.00  0.00  0.00  0.00
  YS02001774YS02001770    1.00   0.00  0.12  0.00  0.78  0.00  0.10  0.00  0.03  0.00
  YS02001779YS02001774    1.00   0.00  0.00  0.00  1.00  0.00  0.00  0.00  0.79  0.00
  YS02001783YS02001784    1.00   0.00  0.14  0.00  0.86  0.00  0.00  0.00  0.56  0.00
  YS02001784YS02001785    1.00   0.00  0.00  0.00  1.00  0.00  0.00  0.00  0.16  0.00
  YS02001786YS02001788    1.00   0.00  0.00  0.00  0.66  0.34  0.00  0.00  0.00  0.00
  YS02001788YS02001790    1.00   0.00  0.00  0.00  0.19  0.81  0.00  0.00  0.82  0.00
  YS02001790YS02001791    1.00   0.00  0.00  0.00  0.02  0.98  0.00  0.00  0.16  0.00
  YS02001791YS02001793    1.00   0.00  0.00  0.00  0.00  1.00  0.00  0.00  0.01  0.00
  YS02001793JiankangQianchi    1.00   0.00  0.00  0.00  0.97  0.03  0.00  0.00  0.97  0.00
  YS02001882YS02001884    1.00   0.13  0.00  0.00  0.87  0.00  0.00  0.00  0.00  0.00
  YS02001884YS02001887    1.00   0.08  0.03  0.00  0.89  0.00  0.00  0.00  0.00  0.00
  YS02001887YS02001890    1.00   0.00  0.00  0.00  0.94  0.00  0.05  0.00  0.00  0.00
  YS02001890YS02001895    1.00   0.00  0.13  0.00  0.87  0.00  0.00  0.00  0.00  0.00
  YS02001895YS02001898    1.00   0.13  0.00  0.00  0.86  0.00  0.01  0.00  0.00  0.00
  YS02001898YS02001901    1.00   0.13  0.00  0.00  0.87  0.00  0.00  0.00  0.01  0.00
  YS02001901YS02001904    1.00   0.13  0.00  0.00  0.87  0.00  0.00  0.00  0.00  0.00
  YS02001904YS02001907    1.00   0.00  0.13  0.00  0.87  0.00  0.00  0.00  0.00  0.00
  YS02001907YS02006553    1.00   0.00  0.04  0.00  0.95  0.00  0.00  0.00  0.00  0.00
  YS02001910YS02001907    1.00   0.00  0.00  0.00  0.95  0.00  0.00  0.05  0.12  0.00
  YS02001915YS02001910    1.00   0.00  0.00  0.00  0.96  0.04  0.00  0.00  0.15  0.00
  YS02001918YS02001915    1.00   0.00  0.00  0.00  0.95  0.04  0.00  0.00  0.76  0.00
  YS02001920YS02001918    1.00   0.00  0.00  0.00  1.00  0.00  0.00  0.00  0.00  0.00
  YS02001923YS02001920    1.00   0.00  0.00  0.00  1.00  0.00  0.00  0.00  0.93  0.00
  YS02001926YS02001923    1.00   0.00  0.09  0.00  0.08  0.00  0.83  0.00  0.00  0.00
  YS02001929YS02001926    1.00   0.00  0.12  0.00  0.88  0.00  0.00  0.00  0.82  0.00
  YS02006553YS02006556    1.00   0.02  0.00  0.00  0.98  0.00  0.00  0.00  0.03  0.00
  YS02006556YS02006558    1.00   0.00  0.00  0.00  1.00  0.00  0.00  0.00  0.00  0.00
  YS02006558YS02006561    1.00   0.14  0.00  0.00  0.07  0.79  0.00  0.00  0.19  0.00
  YS02006561YS02001783    1.00   0.14  0.00  0.00  0.11  0.75  0.00  0.00  0.70  0.00
  YS02163301YS02001633    1.00   0.00  0.13  0.00  0.87  0.00  0.00  0.00  0.00  0.00
  YS02163601YS02164001    1.00   0.00  0.09  0.00  0.91  0.00  0.00  0.00  0.00  0.00
  YS02164001YS02001641    1.00   0.01  0.09  0.00  0.91  0.00  0.00  0.00  0.06  0.00
  YSB1154YSB6556          1.00   0.11  0.00  0.00  0.89  0.00  0.00  0.00  0.02  0.00
  YSB1171HS02004479       1.00   0.07  0.00  0.00  0.92  0.00  0.00  0.01  0.10  0.00
  YSB1174YSB1171          1.00   0.08  0.02  0.00  0.90  0.00  0.00  0.00  0.00  0.00
  YSB6556YSB1171          1.00   0.07  0.05  0.00  0.89  0.00  0.00  0.00  0.00  0.00
  
  
  *************************
  Conduit Surcharge Summary
  *************************
  
  ----------------------------------------------------------------------------
                                                           Hours        Hours 
                         --------- Hours Full --------   Above Full   Capacity
  Conduit                Both Ends  Upstream  Dnstream   Normal Flow   Limited
  ----------------------------------------------------------------------------
  HS02004478WS02006287        0.48      0.48      0.63      0.01         0.01
  HS02004479HS02004480        0.65      0.65      0.66      0.01         0.01
  HS02004480HS02004478        0.58      0.64      0.58      1.67         0.58
  HS02004770HS02004777        0.56      0.56      0.57      0.10         0.07
  HS02004777HS02004785        0.51      0.51      0.57      0.01         0.01
  HS02004785HS02004788        0.50      0.51      0.50      1.38         0.47
  HS02004788HS02004792        0.50      0.50      0.62      0.01         0.01
  HS02004792HS02004799        0.62      0.62      0.71      0.01         0.01
  HS02004799HS02004480        0.64      0.64      0.71      0.81         0.01
  HS02004802HS02004478        0.59      0.59      0.65      0.05         0.01
  HS02004807HS02004802        0.63      0.63      0.64      0.23         0.23
  HS02004817HS02004807        0.63      0.63      1.18      0.01         0.01
  HS02004817HS02004824        0.50      0.50      1.18      0.01         0.01
  HS02004824HS02004830        0.47      0.47      0.50      0.01         0.01
  HS02004830HS02004837        0.43      0.43      0.47      0.01         0.01
  HS02004837HS02004842        0.43      0.43      0.56      0.01         0.01
  HS02004842HS02004848        0.41      0.41      0.56      0.01         0.01
  HS02004848HS02004852        0.41      0.41      0.44      0.02         0.01
  HS02004852HS02004856        0.43      0.44      0.46      0.02         0.01
  HS02004856HS02004862        0.42      0.42      0.46      0.01         0.01
  HS02004862HS02004870        0.45      0.46      0.48      0.14         0.10
  HS02004870HS02004876        0.48      0.48      0.55      0.01         0.01
  HS02004876HS02004881        0.53      0.55      0.53      1.45         0.53
  HS02004881HS02006253        0.53      0.53      1.71      0.01         0.01
  HS02004901HS02004770        0.56      0.56      0.57      0.01         0.01
  WS02003072WS02003073        0.01      0.01      0.01      2.41         0.01
  WS02004401WS02004402        1.62      1.62      1.65      1.39         1.38
  WS02004402WS02004403        1.65      1.65      1.65      1.63         1.59
  WS02004403WS02004404        1.65      1.65      1.73      0.01         0.01
  WS02004404WS02004405        1.72      1.73      1.72      3.17         1.72
  WS02004405WS02004406        1.71      1.72      1.71      1.92         1.71
  WS02004406WS02004407        0.01      0.01      1.71      0.01         0.01
  WS02004407WS02004409        0.01      0.01      0.86      0.01         0.01
  WS02004409WS02004410        0.84      0.86      0.84      1.52         0.83
  WS02004410WS02004411        0.81      0.84      0.81      1.57         0.80
  WS02004411WS02004412        0.71      0.81      0.71      1.61         0.71
  WS02004412WS02004413        0.71      0.71      1.30      0.01         0.01
  WS02004413WS02003067        0.01      0.01      1.30      0.01         0.01
  WS02006109WS02006110        1.85      1.85      2.09      1.86         0.01
  WS02006110WS02006113        1.21      1.21      2.08      0.35         0.01
  WS02006111WS02006112        1.16      1.16      2.24      0.01         0.01
  WS02006112WS02006115        1.53      1.53      1.95      0.01         0.01
  WS02006113WS02006111        1.18      1.21      1.18      1.37         1.18
  WS02006115WS02006116        1.54      1.54      1.55      1.52         1.49
  WS02006116WS02004401        1.61      1.62      1.62      1.58         1.57
  WS02006228WS02006109        2.04      2.09      2.04      2.53         2.04
  WS02006229WS02006228        2.03      2.05      2.03      2.25         2.03
  WS02006230WS02006229        2.11      2.17      2.12      3.31         1.13
  WS02006231WS02006230        1.75      1.75      1.81      3.00         0.90
  WS02006232WS02006231        1.79      1.79      1.94      0.01         0.16
  WS02006234WS02006232        1.87      1.87      1.94      0.01         0.03
  WS02006235WS02006234        1.83      1.83      1.87      2.66         0.88
  WS02006238WS02006235        1.89      1.89      1.93      0.01         0.35
  WS02006239WS02006238        1.90      1.92      1.91      1.21         0.32
  WS02006240WS02006239        1.83      1.84      1.84      1.17         0.25
  WS02006242WS02006240        1.83      1.83      1.92      1.58         0.85
  WS02006243WS02006242        1.82      1.82      1.89      0.01         0.02
  WS02006245WS02006243        1.79      1.80      1.80      0.34         0.21
  WS02006247WS02006245        1.80      1.80      1.80      2.29         0.75
  WS02006248WS02006247        1.78      1.78      1.80      0.01         0.02
  WS02006249WS02006248        1.77      1.77      1.78      1.17         0.01
  WS02006251WS02006249        1.77      1.77      1.78      1.92         1.73
  WS02006252WS02006251        2.03      2.03      2.05      1.66         0.01
  WS02006253WS02006251        1.76      1.77      1.77      0.75         0.02
  WS02006256WS02006235        2.89      2.93      7.08      0.50         0.01
  WS02006280WS02006229        0.74      0.74      0.85      0.01         0.01
  WS02006284WS02006280        0.65      0.65      0.72      0.01         0.01
  WS02006287WS02006284        0.57      0.57      0.66      0.27         0.28
  YS02001580YS02001583        0.58      0.58      0.64      0.01         0.01
  YS02001583YS02001586        0.59      0.59      0.73      0.01         0.01
  YS02001586YS02001590        0.74      0.74      0.80      0.01         0.01
  YS02001590YS02001593        0.80      0.80      0.82      0.86         0.01
  YS02001593YS02001596        0.81      0.81      0.90      0.01         0.01
  YS02001596YS02001600        0.93      0.93      1.03      0.01         0.01
  YS02001600YS02001601        1.09      1.09      1.43      0.01         0.01
  YS02001601YS02001602        1.28      1.28      1.49      1.04         0.01
  YS02001602YS02001605        1.22      1.22      1.28      2.15         0.01
  YS02001605YS02001607        1.17      1.22      1.17      1.36         1.17
  YS02001607YS02001610        0.77      0.77      0.80      0.01         0.01
  YS02001610YS02001613        0.77      0.77      0.80      0.01         0.01
  YS02001613YS02001616        0.73      0.73      0.77      0.01         0.01
  YS02001616YS02001619        0.72      0.72      0.73      0.01         0.01
  YS02001619YS02001622        0.71      0.72      0.71      0.82         0.68
  YS02001622YS02001625        0.71      0.71      0.88      0.01         0.01
  YS02001625YS02001629        0.66      0.66      0.88      0.01         0.01
  YS02001629YS02163301        0.88      0.88      0.89      0.12         0.16
  YS02001633YS02163601        0.90      0.90      0.93      0.37         0.35
  YS02001641YS02001644        0.83      0.86      0.83      1.53         0.82
  YS02001644YS02001647        0.64      0.64      0.83      0.03         0.01
  YS02001647YS02001649        0.64      0.64      0.77      0.01         0.01
  YS02001649YS02001757        0.76      0.77      0.84      0.07         0.13
  YS02001652YS02001649        0.58      0.58      0.77      0.01         0.01
  YS02001655YS02001652        0.37      0.37      0.56      0.01         0.01
  YS02001658YS02001655        0.16      0.16      0.37      0.01         0.01
  YS02001661YS02001658        0.01      0.01      0.16      0.01         0.01
  YS02001664YS02001661        0.01      0.01      0.02      0.01         0.01
  YS02001745YS02001748        0.01      0.01      0.02      0.01         0.01
  YS02001748YS02001751        0.13      0.13      0.24      0.01         0.01
  YS02001751YS02001754        0.24      0.24      0.45      0.01         0.01
  YS02001754YS02001757        0.50      0.50      0.84      0.01         0.01
  YS02001757CaochengTiaoxuchi        0.75      0.84      1.41      0.35         0.25
  YS02001759YS02001757        0.74      0.74      0.84      0.01         0.02
  YS02001762YS02001759        0.70      0.70      0.74      0.01         0.03
  YS02001765YS02001762        0.65      0.65      0.70      0.01         0.01
  YS02001767YS02001765        0.61      0.61      0.65      0.01         0.05
  YS02001770YS02001767        0.61      0.61      0.61      0.52         0.44
  YS02001774YS02001770        0.57      0.57      0.68      0.01         0.01
  YS02001779YS02001774        0.44      0.44      0.68      0.01         0.01
  YS02001783YS02001784        0.50      0.53      0.50      0.65         0.50
  YS02001784YS02001785        0.41      0.50      0.41      0.86         0.41
  YS02001786YS02001788        0.01      0.41      0.01      0.74         0.01
  YS02001790YS02001791        0.01      0.01      0.01      0.49         0.01
  YS02001793JiankangQianchi        0.01      0.01      6.60      0.01         0.01
  YS02001882YS02001884        0.47      0.47      0.48      0.01         0.01
  YS02001884YS02001887        0.50      0.50      0.52      0.01         0.01
  YS02001887YS02001890        0.53      0.53      0.54      0.10         0.01
  YS02001890YS02001895        0.46      0.46      0.55      0.01         0.01
  YS02001895YS02001898        0.46      0.46      0.46      0.02         0.01
  YS02001898YS02001901        0.47      0.47      0.51      0.01         0.01
  YS02001901YS02001904        0.50      0.50      0.51      0.01         0.01
  YS02001904YS02001907        0.50      0.50      0.71      0.01         0.01
  YS02001907YS02006553        0.87      0.87      0.93      0.01         0.01
  YS02001910YS02001907        0.55      0.55      0.70      0.01         0.01
  YS02001915YS02001910        0.47      0.47      0.55      0.01         0.01
  YS02001918YS02001915        0.39      0.39      0.47      0.01         0.01
  YS02001920YS02001918        0.39      0.39      0.41      0.01         0.01
  YS02001923YS02001920        0.35      0.35      0.41      0.01         0.01
  YS02001926YS02001923        0.02      0.03      0.04      0.01         0.01
  YS02001929YS02001926        0.01      0.01      0.04      0.01         0.01
  YS02006553YS02006556        0.62      0.62      0.71      0.01         0.01
  YS02006556YS02006558        0.67      0.67      0.73      0.01         0.01
  YS02006558YS02006561        0.43      0.62      0.43      0.82         0.43
  YS02006561YS02001783        0.36      0.36      0.53      0.01         0.01
  YS02163301YS02001633        0.89      0.89      0.92      0.01         0.01
  YS02163601YS02164001        0.86      0.86      0.93      0.03         0.01
  YS02164001YS02001641        0.86      0.86      0.86      0.73         0.67
  YSB1154YSB6556              0.69      0.69      0.83      0.01         0.01
  YSB1171HS02004479           0.61      0.61      0.84      0.01         0.01
  YSB1174YSB1171              0.75      0.75      1.08      0.01         0.01
  YSB6556YSB1171              0.69      0.69      1.24      0.01         0.01
  
  
  ***************
  Pumping Summary
  ***************
  
  ---------------------------------------------------------------------------------------------------------
                                                  Min       Avg       Max     Total     Power    % Time Off
                        Percent   Number of      Flow      Flow      Flow    Volume     Usage    Pump Curve
  Pump                 Utilized   Start-Ups       LPS       LPS       LPS  10^6 ltr     Kw-hr    Low   High
  ---------------------------------------------------------------------------------------------------------
  CC-R1                   24.57          20      0.00    683.00    683.00     4.833     88.23    0.0   30.8
  CC-R2                   16.05          22      0.00    683.00    683.00     3.158     58.15    0.0   23.3
  CC-S1                   28.08          30      0.00    200.00    200.00     1.618     10.97    0.0    0.0
  CC-S2                   26.11          28      0.00    200.00    200.00     1.504     10.05    0.0    0.0
  JK-R1                    6.34          21      0.00   1000.00   1000.00     1.827     17.30    0.0    0.0
  JK-R2                    3.43          17      0.00   1000.00   1000.00     0.988      7.88    0.0    0.0
  JK-S                    13.89          37      0.00    300.00    300.00     1.200     20.67    0.0    0.0
  XR-1                    97.91           2      0.00     95.00     95.00     2.679      9.61    0.0    0.0
  XR-2                    93.94           2      0.00     95.00     95.00     2.570      8.77    0.0    0.0
  XR-3                     0.00           1      0.00     95.00     95.00     0.000      0.00    0.0    0.0
  XR-4                     0.00           1      0.00     95.00     95.00     0.000      0.00    0.0    0.0
  

  Analysis begun on:  Fri Feb 24 05:44:13 2023
  Analysis ended on:  Fri Feb 24 05:44:16 2023
  Total elapsed time: 00:00:03